                                  MODFLOW-NWT-SWR1 
      U.S. GEOLOGICAL SURVEY MODULAR FINITE-DIFFERENCE GROUNDWATER-FLOW MODEL
                             VERSION 1.1.4 4/01/2018
                    BASED ON MODFLOW-2005 VERSION 1.12.00 02/03/2017

 LIST FILE: sagehen.list
                         UNIT   26

 OPENING sagehen.dis
 FILE TYPE:DIS   UNIT   11   STATUS:OLD    
 FORMAT:FORMATTED              ACCESS:SEQUENTIAL          

 OPENING sagehen.bas
 FILE TYPE:BAS6   UNIT    8   STATUS:OLD    
 FORMAT:FORMATTED              ACCESS:SEQUENTIAL          

 OPENING sagehen.oc
 FILE TYPE:OC   UNIT    9   STATUS:OLD    
 FORMAT:FORMATTED              ACCESS:SEQUENTIAL          

 OPENING sagehen.lpf
 FILE TYPE:LPF   UNIT   12   STATUS:OLD    
 FORMAT:FORMATTED              ACCESS:SEQUENTIAL          

 OPENING sagehen.uzf
 FILE TYPE:UZF   UNIT   14   STATUS:OLD    
 FORMAT:FORMATTED              ACCESS:SEQUENTIAL          

 OPENING sagehen.sfr
 FILE TYPE:SFR   UNIT   15   STATUS:OLD    
 FORMAT:FORMATTED              ACCESS:SEQUENTIAL          

 OPENING sagehen.wel
 FILE TYPE:WEL   UNIT   18   STATUS:OLD    
 FORMAT:FORMATTED              ACCESS:SEQUENTIAL          

 OPENING head_sagehen.out
 FILE TYPE:DATA   UNIT   58   STATUS:UNKNOWN
 FORMAT:FORMATTED              ACCESS:SEQUENTIAL          

 OPENING uz1_sagehen.out
 FILE TYPE:DATA   UNIT   65   STATUS:UNKNOWN
 FORMAT:FORMATTED              ACCESS:SEQUENTIAL          

 OPENING uz2_sagehen.out
 FILE TYPE:DATA   UNIT   66   STATUS:UNKNOWN
 FORMAT:FORMATTED              ACCESS:SEQUENTIAL          

 OPENING uz3_sagehen.out
 FILE TYPE:DATA   UNIT   67   STATUS:UNKNOWN
 FORMAT:FORMATTED              ACCESS:SEQUENTIAL          

 OPENING uz4_sagehen.out
 FILE TYPE:DATA   UNIT   68   STATUS:UNKNOWN
 FORMAT:FORMATTED              ACCESS:SEQUENTIAL          

 BAS -- BASIC PACKAGE, VERSION 1.1.4, 4/01/2018 INPUT READ FROM UNIT    8
 
 MODFLOW was compiled using mixed precision
 Precision of REAL variables:           6
 Precision of DOUBLE PRECISION variables:          15

 DISCRETIZATION INPUT DATA READ FROM UNIT   11
 # DIS package for  MODFLOW-NWT, generated by Flopy.
    2 LAYERS        73 ROWS        81 COLUMNS
    2 STRESS PERIOD(S) IN SIMULATION
 MODEL TIME UNIT IS DAYS
 MODEL LENGTH UNIT IS METERS
  Confining bed flag for each layer:
   0   0



                               DELR
 READING ON UNIT   11 WITH FORMAT: (FREE)              



                               DELC
 READING ON UNIT   11 WITH FORMAT: (FREE)              



           TOP ELEVATION OF LAYER 1
 READING ON UNIT   11 WITH FORMAT: (FREE)              

            1           2           3           4           5           6           7           8           9          10
           11          12          13          14          15          16          17          18          19          20
           21          22          23          24          25          26          27          28          29          30
           31          32          33          34          35          36          37          38          39          40
           41          42          43          44          45          46          47          48          49          50
           51          52          53          54          55          56          57          58          59          60
           61          62          63          64          65          66          67          68          69          70
           71          72          73          74          75          76          77          78          79          80
           81
 ........................................................................................................................
   1    0.000       0.000       0.000       0.000       0.000       0.000       0.000       0.000       0.000       0.000    
        0.000       0.000       0.000       0.000       0.000       0.000       0.000       0.000       0.000       0.000    
        0.000       0.000       0.000       0.000       0.000       0.000       0.000       0.000       0.000       0.000    
        0.000       0.000       0.000       0.000       0.000       0.000       0.000       0.000       0.000       0.000    
        0.000       0.000       0.000       0.000       0.000       0.000       0.000       0.000       0.000       0.000    
        0.000       0.000       0.000       0.000       0.000       0.000       0.000       0.000       0.000       0.000    
        0.000       0.000       0.000       2166.       2148.       0.000       0.000       0.000       0.000       0.000    
        0.000       0.000       0.000       0.000       0.000       0.000       0.000       0.000       0.000       0.000    
        0.000    
   2    0.000       0.000       0.000       0.000       0.000       0.000       0.000       0.000       0.000       0.000    
        0.000       0.000       0.000       0.000       0.000       0.000       0.000       0.000       0.000       0.000    
        0.000       0.000       0.000       0.000       0.000       0.000       0.000       0.000       0.000       0.000    
        0.000       0.000       0.000       0.000       0.000       0.000       0.000       0.000       0.000       0.000    
        0.000       0.000       0.000       0.000       0.000       0.000       0.000       0.000       0.000       0.000    
        0.000       0.000       0.000       0.000       0.000       0.000       0.000       0.000       0.000       0.000    
        0.000       0.000       2170.       2158.       2136.       0.000       0.000       0.000       0.000       0.000    
        0.000       0.000       0.000       0.000       0.000       0.000       0.000       0.000       0.000       0.000    
        0.000    
   3    0.000       0.000       0.000       0.000       0.000       0.000       0.000       0.000       0.000       0.000    
        0.000       0.000       0.000       0.000       0.000       0.000       0.000       0.000       0.000       0.000    
        0.000       0.000       0.000       0.000       0.000       0.000       0.000       0.000       0.000       0.000    
        0.000       0.000       0.000       0.000       0.000       0.000       0.000       0.000       0.000       0.000    
        0.000       0.000       0.000       0.000       0.000       0.000       0.000       0.000       0.000       0.000    
        0.000       0.000       0.000       0.000       0.000       0.000       0.000       0.000       0.000       0.000    
        0.000       0.000       2161.       2144.       2124.       0.000       0.000       0.000       0.000       0.000    
        0.000       0.000       0.000       0.000       0.000       0.000       0.000       0.000       0.000       0.000    
        0.000    
   4    0.000       0.000       0.000       0.000       0.000       0.000       0.000       0.000       0.000       0.000    
        0.000       0.000       0.000       0.000       0.000       0.000       0.000       0.000       0.000       0.000    
        0.000       0.000       0.000       0.000       0.000       0.000       0.000       0.000       0.000       0.000    
        0.000       0.000       0.000       0.000       0.000       0.000       0.000       0.000       0.000       0.000    
        0.000       0.000       0.000       0.000       0.000       0.000       0.000       0.000       0.000       0.000    
        0.000       0.000       0.000       0.000       0.000       0.000       0.000       0.000       0.000       0.000    
        0.000       2158.       2152.       2128.       2121.       0.000       0.000       0.000       0.000       0.000    
        0.000       0.000       0.000       0.000       0.000       0.000       0.000       0.000       0.000       0.000    
        0.000    
   5    0.000       0.000       0.000       0.000       0.000       0.000       0.000       0.000       0.000       0.000    
        0.000       0.000       0.000       0.000       0.000       0.000       0.000       0.000       0.000       0.000    
        0.000       0.000       0.000       0.000       0.000       0.000       0.000       0.000       0.000       0.000    
        0.000       0.000       0.000       0.000       0.000       0.000       0.000       0.000       0.000       0.000    
        0.000       0.000       0.000       0.000       0.000       0.000       0.000       0.000       0.000       0.000    
        0.000       0.000       0.000       0.000       0.000       0.000       0.000       0.000       0.000       0.000    
        0.000       2153.       2141.       2122.       2119.       2119.       0.000       0.000       0.000       0.000    
        0.000       0.000       0.000       0.000       0.000       0.000       0.000       0.000       0.000       0.000    
        0.000    
   6    0.000       0.000       0.000       0.000       0.000       0.000       0.000       0.000       0.000       0.000    
        0.000       0.000       0.000       0.000       0.000       0.000       0.000       0.000       0.000       0.000    
        0.000       0.000       0.000       0.000       0.000       0.000       0.000       0.000       0.000       0.000    
        0.000       0.000       0.000       0.000       0.000       0.000       0.000       0.000       0.000       0.000    
        0.000       0.000       0.000       0.000       0.000       0.000       0.000       0.000       0.000       0.000    
        0.000       0.000       0.000       0.000       0.000       0.000       0.000       0.000       0.000       0.000    
        0.000       2149.       2134.       2121.       2119.       2118.       2116.       0.000       0.000       0.000    
        0.000       0.000       0.000       0.000       0.000       0.000       0.000       0.000       0.000       0.000    
        0.000    
   7    0.000       0.000       0.000       0.000       0.000       0.000       0.000       0.000       0.000       0.000    
        0.000       0.000       0.000       0.000       0.000       0.000       0.000       0.000       0.000       0.000    
        0.000       0.000       0.000       0.000       0.000       0.000       0.000       0.000       0.000       0.000    
        0.000       0.000       0.000       0.000       0.000       0.000       0.000       0.000       0.000       0.000    
        0.000       0.000       0.000       0.000       0.000       0.000       0.000       0.000       0.000       0.000    
        0.000       0.000       0.000       0.000       0.000       0.000       0.000       0.000       0.000       0.000    
        2156.       2151.       2136.       2125.       2119.       2115.       2114.       2116.       0.000       0.000    
        0.000       0.000       0.000       0.000       0.000       0.000       0.000       0.000       0.000       0.000    
        0.000    
   8    0.000       0.000       0.000       0.000       0.000       0.000       0.000       0.000       0.000       0.000    
        0.000       0.000       0.000       0.000       0.000       0.000       0.000       0.000       0.000       0.000    
        0.000       0.000       0.000       0.000       0.000       0.000       0.000       0.000       0.000       0.000    
        0.000       0.000       0.000       0.000       0.000       0.000       0.000       0.000       0.000       0.000    
        0.000       0.000       0.000       0.000       0.000       0.000       0.000       0.000       0.000       0.000    
        0.000       0.000       0.000       0.000       0.000       0.000       0.000       0.000       0.000       0.000    
        2160.       2153.       2142.       2130.       2117.       2111.       2112.       2116.       2120.       2123.    
        2125.       0.000       0.000       0.000       0.000       0.000       0.000       0.000       0.000       0.000    
        0.000    
   9    0.000       0.000       0.000       0.000       0.000       0.000       0.000       0.000       0.000       0.000    
        0.000       0.000       0.000       0.000       0.000       0.000       0.000       0.000       0.000       0.000    
        0.000       0.000       0.000       0.000       0.000       0.000       0.000       0.000       0.000       0.000    
        0.000       0.000       0.000       0.000       0.000       0.000       0.000       0.000       0.000       0.000    
        0.000       0.000       0.000       0.000       0.000       0.000       0.000       0.000       2185.       2184.    
        0.000       0.000       0.000       0.000       0.000       0.000       0.000       0.000       2152.       2156.    
        2155.       2146.       2138.       2128.       2114.       2109.       2110.       2114.       2120.       2124.    
        2126.       2122.       2120.       2121.       2123.       0.000       0.000       0.000       0.000       0.000    
        0.000    
  10    0.000       0.000       0.000       0.000       0.000       0.000       0.000       0.000       0.000       0.000    
        0.000       0.000       0.000       0.000       0.000       0.000       0.000       0.000       0.000       0.000    
        0.000       0.000       0.000       0.000       0.000       0.000       0.000       0.000       0.000       0.000    
        0.000       0.000       0.000       0.000       0.000       0.000       0.000       0.000       0.000       0.000    
        0.000       0.000       0.000       0.000       0.000       0.000       0.000       2188.       2185.       2184.    
        2186.       2181.       2172.       0.000       0.000       0.000       2153.       2151.       2149.       2149.    
        2147.       2142.       2133.       2121.       2112.       2107.       2108.       2110.       2120.       2125.    
        2126.       2123.       2118.       2119.       2121.       2123.       0.000       0.000       0.000       0.000    
        0.000    
  11    0.000       0.000       0.000       0.000       0.000       0.000       0.000       0.000       0.000       0.000    
        0.000       0.000       0.000       0.000       0.000       0.000       0.000       0.000       0.000       0.000    
        0.000       0.000       0.000       0.000       0.000       0.000       0.000       0.000       0.000       0.000    
        0.000       0.000       0.000       0.000       0.000       0.000       0.000       0.000       0.000       0.000    
        0.000       0.000       0.000       0.000       0.000       0.000       2194.       2186.       2178.       2179.    
        2176.       2169.       2166.       2165.       2163.       2160.       2156.       2151.       2147.       2144.    
        2142.       2138.       2130.       2118.       2110.       2106.       2106.       2108.       2116.       2123.    
        2125.       2123.       2117.       2112.       2114.       2118.       0.000       0.000       0.000       0.000    
        0.000    
  12    0.000       0.000       0.000       0.000       0.000       0.000       0.000       0.000       0.000       0.000    
        0.000       0.000       0.000       0.000       0.000       0.000       0.000       0.000       0.000       0.000    
        0.000       0.000       0.000       0.000       0.000       0.000       0.000       0.000       0.000       0.000    
        0.000       0.000       0.000       0.000       0.000       0.000       0.000       0.000       0.000       0.000    
        0.000       0.000       0.000       0.000       0.000       0.000       2193.       2182.       2174.       2167.    
        2158.       2156.       2157.       2161.       2162.       2160.       2154.       2148.       2144.       2139.    
        2136.       2136.       2131.       2118.       2110.       2106.       2105.       2106.       2112.       2117.    
        2120.       2119.       2115.       2110.       2108.       2112.       2117.       0.000       0.000       0.000    
        0.000    
  13    0.000       0.000       0.000       0.000       0.000       0.000       0.000       0.000       0.000       0.000    
        0.000       0.000       0.000       0.000       0.000       0.000       0.000       0.000       0.000       0.000    
        0.000       0.000       0.000       0.000       0.000       0.000       0.000       0.000       0.000       0.000    
        0.000       0.000       0.000       0.000       0.000       0.000       0.000       0.000       0.000       0.000    
        0.000       0.000       0.000       0.000       2207.       2197.       2187.       2179.       2171.       2159.    
        2150.       2144.       2145.       2152.       2157.       2157.       2151.       2145.       2140.       2135.    
        2132.       2131.       2127.       2119.       2110.       2107.       2103.       2102.       2107.       2110.    
        2112.       2114.       2112.       2107.       2102.       2109.       2117.       2123.       0.000       0.000    
        0.000    
  14    0.000       0.000       0.000       0.000       0.000       0.000       0.000       0.000       0.000       0.000    
        0.000       0.000       0.000       0.000       0.000       0.000       0.000       0.000       0.000       0.000    
        0.000       0.000       0.000       0.000       0.000       0.000       0.000       0.000       0.000       0.000    
        0.000       0.000       0.000       0.000       0.000       0.000       0.000       0.000       0.000       0.000    
        0.000       2219.       2213.       2209.       2200.       2185.       2179.       2172.       2161.       2156.    
        2151.       2147.       2135.       2140.       2147.       2149.       2147.       2142.       2137.       2132.    
        2129.       2126.       2122.       2117.       2111.       2105.       2100.       2098.       2101.       2104.    
        2107.       2108.       2106.       2100.       2099.       2108.       2117.       2124.       2128.       0.000    
        0.000    
  15    0.000       0.000       0.000       0.000       0.000       0.000       0.000       0.000       0.000       0.000    
        0.000       0.000       0.000       0.000       0.000       0.000       0.000       0.000       0.000       0.000    
        0.000       0.000       0.000       0.000       0.000       0.000       0.000       0.000       0.000       0.000    
        0.000       0.000       0.000       0.000       0.000       0.000       0.000       0.000       0.000       0.000    
        2225.       2218.       2209.       2206.       2191.       2180.       2174.       2167.       2158.       2155.    
        2151.       2148.       2133.       2128.       2132.       2136.       2139.       2138.       2134.       2128.    
        2125.       2121.       2118.       2115.       2111.       2105.       2099.       2094.       2095.       2097.    
        2101.       2102.       2099.       2095.       2095.       2103.       2113.       2121.       2127.       2131.    
        0.000    
  16    0.000       0.000       0.000       0.000       0.000       0.000       0.000       0.000       0.000       0.000    
        0.000       0.000       0.000       0.000       0.000       0.000       0.000       0.000       0.000       0.000    
        0.000       0.000       0.000       0.000       0.000       0.000       0.000       0.000       0.000       0.000    
        0.000       0.000       0.000       0.000       0.000       0.000       0.000       0.000       0.000       2230.    
        2222.       2224.       2226.       2215.       2198.       2188.       2179.       2168.       2158.       2154.    
        2149.       2142.       2131.       2122.       2117.       2121.       2131.       2131.       2127.       2123.    
        2120.       2116.       2113.       2111.       2109.       2105.       2099.       2091.       2091.       2094.    
        2097.       2097.       2092.       2088.       2089.       2097.       2109.       2121.       2126.       2128.    
        0.000    
  17    0.000       0.000       0.000       0.000       0.000       0.000       0.000       0.000       0.000       0.000    
        0.000       0.000       0.000       0.000       0.000       0.000       0.000       0.000       0.000       0.000    
        0.000       0.000       0.000       0.000       0.000       0.000       0.000       0.000       0.000       0.000    
        0.000       0.000       0.000       0.000       0.000       0.000       0.000       0.000       0.000       2235.    
        2240.       2241.       2235.       2220.       2202.       2191.       2181.       2175.       2164.       2155.    
        2149.       2142.       2135.       2126.       2107.       2107.       2121.       2122.       2119.       2116.    
        2112.       2110.       2109.       2107.       2106.       2104.       2100.       2090.       2087.       2090.    
        2092.       2091.       2085.       2082.       2081.       2090.       2106.       2120.       2123.       2123.    
        0.000    
  18    0.000       0.000       0.000       0.000       0.000       0.000       0.000       0.000       0.000       0.000    
        0.000       0.000       0.000       0.000       0.000       0.000       0.000       0.000       0.000       0.000    
        0.000       0.000       0.000       0.000       0.000       0.000       0.000       0.000       0.000       0.000    
        0.000       0.000       0.000       0.000       0.000       0.000       0.000       0.000       0.000       2248.    
        2242.       2233.       2221.       2207.       2193.       2181.       2171.       2165.       2157.       2150.    
        2146.       2140.       2136.       2123.       2100.       2094.       2109.       2113.       2111.       2108.    
        2106.       2105.       2105.       2105.       2103.       2102.       2099.       2090.       2083.       2088.    
        2089.       2088.       2085.       2076.       2075.       2082.       2096.       2110.       2115.       2119.    
        0.000    
  19    0.000       0.000       0.000       0.000       0.000       0.000       0.000       0.000       0.000       0.000    
        0.000       0.000       0.000       0.000       0.000       0.000       0.000       0.000       0.000       0.000    
        0.000       0.000       0.000       0.000       0.000       0.000       0.000       0.000       0.000       0.000    
        0.000       0.000       0.000       0.000       2262.       2252.       2253.       2251.       2243.       2234.    
        2224.       2213.       2203.       2191.       2180.       2170.       2162.       2153.       2143.       2136.    
        2130.       2126.       2124.       2109.       2087.       2086.       2098.       2102.       2101.       2101.    
        2100.       2099.       2099.       2102.       2101.       2100.       2096.       2088.       2080.       2085.    
        2086.       2084.       2081.       2072.       2070.       2076.       2085.       2097.       2107.       2113.    
        2115.    
  20    0.000       0.000       0.000       0.000       0.000       0.000       0.000       0.000       0.000       0.000    
        0.000       0.000       0.000       0.000       0.000       0.000       0.000       0.000       0.000       0.000    
        0.000       0.000       0.000       0.000       0.000       0.000       0.000       0.000       0.000       0.000    
        0.000       0.000       2270.       2256.       2240.       2225.       2228.       2228.       2222.       2213.    
        2204.       2193.       2182.       2172.       2162.       2155.       2150.       2146.       2137.       2124.    
        2112.       2102.       2100.       2090.       2073.       2075.       2085.       2093.       2092.       2093.    
        2094.       2094.       2096.       2099.       2100.       2098.       2091.       2085.       2075.       2077.    
        2078.       2073.       2068.       2065.       2063.       2066.       2074.       2085.       2100.       2108.    
        2112.    
  21    0.000       0.000       0.000       0.000       0.000       0.000       0.000       0.000       0.000       0.000    
        0.000       0.000       0.000       0.000       0.000       0.000       0.000       0.000       0.000       0.000    
        0.000       0.000       0.000       0.000       0.000       0.000       0.000       0.000       0.000       2284.    
        2273.       2256.       2243.       2231.       2213.       2196.       2201.       2202.       2199.       2192.    
        2184.       2174.       2164.       2153.       2145.       2139.       2134.       2129.       2124.       2115.    
        2103.       2086.       2075.       2066.       2060.       2064.       2074.       2082.       2083.       2084.    
        2086.       2090.       2094.       2097.       2097.       2091.       2085.       2078.       2069.       2063.    
        2066.       2062.       2060.       2060.       2058.       2059.       2064.       2075.       2093.       2102.    
        2106.    
  22    0.000       0.000       0.000       0.000       0.000       0.000       0.000       0.000       0.000       0.000    
        0.000       0.000       0.000       0.000       0.000       0.000       0.000       0.000       0.000       0.000    
        0.000       0.000       0.000       0.000       0.000       0.000       2280.       2278.       2273.       2264.    
        2245.       2229.       2218.       2207.       2191.       2173.       2179.       2181.       2178.       2172.    
        2164.       2155.       2145.       2134.       2124.       2119.       2116.       2113.       2108.       2104.    
        2096.       2081.       2065.       2055.       2050.       2055.       2066.       2073.       2074.       2077.    
        2083.       2087.       2091.       2093.       2089.       2084.       2079.       2074.       2065.       2058.    
        2056.       2056.       2057.       2057.       2057.       2057.       2057.       2068.       2084.       2095.    
        2100.    
  23    0.000       0.000       0.000       0.000       0.000       0.000       0.000       0.000       0.000       0.000    
        0.000       0.000       0.000       0.000       0.000       0.000       0.000       0.000       0.000       0.000    
        0.000       0.000       0.000       0.000       2319.       2302.       2278.       2261.       2248.       2234.    
        2216.       2204.       2196.       2187.       2175.       2164.       2164.       2164.       2160.       2153.    
        2145.       2132.       2119.       2110.       2106.       2103.       2101.       2097.       2092.       2089.    
        2088.       2080.       2062.       2048.       2042.       2048.       2056.       2060.       2064.       2072.    
        2080.       2086.       2089.       2089.       2084.       2078.       2075.       2070.       2063.       2055.    
        2052.       2054.       2056.       2058.       2059.       2058.       2057.       2063.       2075.       2090.    
        2096.    
  24    0.000       0.000       0.000       0.000       0.000       0.000       0.000       0.000       0.000       0.000    
        0.000       0.000       0.000       0.000       0.000       0.000       0.000       0.000       0.000       0.000    
        0.000       0.000       2330.       2316.       2300.       2283.       2257.       2236.       2223.       2206.    
        2193.       2185.       2178.       2171.       2163.       2156.       2151.       2149.       2143.       2135.    
        2124.       2111.       2101.       2094.       2090.       2087.       2083.       2079.       2076.       2077.    
        2078.       2072.       2059.       2044.       2036.       2038.       2046.       2049.       2056.       2071.    
        2077.       2082.       2087.       2088.       2080.       2073.       2071.       2067.       2062.       2053.    
        2049.       2052.       2058.       2064.       2069.       2069.       2064.       2065.       2077.       2096.    
        2107.    
  25    0.000       0.000       0.000       0.000       0.000       0.000       0.000       0.000       0.000       0.000    
        0.000       0.000       0.000       0.000       0.000       0.000       0.000       0.000       0.000       0.000    
        2371.       2337.       2311.       2295.       2281.       2265.       2240.       2215.       2196.       2184.    
        2177.       2170.       2163.       2157.       2151.       2147.       2142.       2133.       2128.       2119.    
        2107.       2096.       2087.       2080.       2074.       2070.       2066.       2064.       2064.       2067.    
        2068.       2065.       2054.       2040.       2031.       2028.       2033.       2038.       2049.       2065.    
        2073.       2078.       2083.       2086.       2077.       2071.       2068.       2066.       2060.       2051.    
        2046.       2051.       2057.       2065.       2071.       2075.       2073.       2071.       2080.       2098.    
        0.000    
  26    0.000       0.000       0.000       0.000       0.000       0.000       0.000       0.000       0.000       0.000    
        0.000       0.000       0.000       0.000       0.000       0.000       0.000       0.000       2380.       2373.    
        2353.       2323.       2295.       2282.       2270.       2250.       2226.       2200.       2177.       2168.    
        2163.       2157.       2151.       2145.       2139.       2136.       2133.       2122.       2115.       2107.    
        2096.       2084.       2072.       2066.       2062.       2056.       2053.       2051.       2054.       2057.    
        2059.       2059.       2052.       2043.       2033.       2023.       2022.       2030.       2042.       2058.    
        2067.       2071.       2077.       2079.       2072.       2066.       2065.       2064.       2060.       2048.    
        2046.       2047.       2053.       2063.       2071.       2078.       2082.       2076.       2079.       0.000    
        0.000    
  27    0.000       0.000       0.000       0.000       0.000       0.000       0.000       0.000       0.000       0.000    
        0.000       0.000       0.000       0.000       0.000       0.000       0.000       2370.       2364.       2354.    
        2341.       2313.       2282.       2272.       2259.       2239.       2216.       2191.       2166.       2156.    
        2151.       2146.       2140.       2135.       2130.       2125.       2122.       2111.       2106.       2100.    
        2088.       2072.       2061.       2055.       2050.       2045.       2041.       2040.       2044.       2048.    
        2050.       2052.       2049.       2042.       2032.       2018.       2018.       2025.       2037.       2052.    
        2062.       2067.       2071.       2072.       2065.       2060.       2061.       2062.       2060.       2051.    
        2046.       2045.       2048.       2060.       2073.       2081.       0.000       0.000       0.000       0.000    
        0.000    
  28    0.000       0.000       0.000       0.000       0.000       0.000       0.000       0.000       0.000       0.000    
        0.000       0.000       0.000       0.000       0.000       0.000       2370.       2363.       2351.       2342.    
        2328.       2303.       2273.       2260.       2246.       2227.       2207.       2187.       2165.       2148.    
        2141.       2134.       2130.       2125.       2120.       2117.       2114.       2107.       2100.       2092.    
        2080.       2065.       2053.       2047.       2042.       2037.       2033.       2033.       2036.       2039.    
        2043.       2045.       2043.       2039.       2030.       2018.       2013.       2020.       2032.       2046.    
        2055.       2061.       2063.       2062.       2059.       2055.       2056.       2058.       2058.       2057.    
        2049.       2049.       2044.       2056.       2068.       2082.       0.000       0.000       0.000       0.000    
        0.000    
  29    0.000       0.000       0.000       0.000       0.000       0.000       0.000       0.000       0.000       0.000    
        0.000       2467.       2440.       2419.       2398.       2377.       2365.       2353.       2342.       2331.    
        2318.       2292.       2266.       2248.       2233.       2216.       2201.       2183.       2164.       2148.    
        2137.       2129.       2123.       2117.       2113.       2110.       2106.       2101.       2096.       2082.    
        2070.       2058.       2047.       2040.       2035.       2030.       2027.       2026.       2028.       2031.    
        2035.       2038.       2037.       2033.       2026.       2014.       2008.       2016.       2029.       2039.    
        2046.       2052.       2053.       2053.       2052.       2049.       2050.       2052.       2057.       2057.    
        2052.       2050.       2044.       2050.       2061.       2071.       0.000       0.000       0.000       0.000    
        0.000    
  30    0.000       0.000       0.000       0.000       0.000       0.000       0.000       0.000       0.000       0.000    
        2510.       2464.       2434.       2412.       2391.       2374.       2358.       2344.       2335.       2325.    
        2311.       2285.       2268.       2248.       2227.       2209.       2190.       2175.       2164.       2152.    
        2137.       2128.       2119.       2111.       2105.       2101.       2096.       2090.       2083.       2071.    
        2060.       2052.       2044.       2040.       2038.       2033.       2025.       2022.       2022.       2024.    
        2028.       2031.       2031.       2027.       2020.       2008.       2003.       2015.       2027.       2031.    
        2035.       2041.       2043.       2046.       2046.       2043.       2044.       2047.       2054.       2056.    
        2055.       2052.       2042.       2045.       2052.       2058.       0.000       0.000       0.000       0.000    
        0.000    
  31    0.000       0.000       0.000       0.000       0.000       0.000       0.000       0.000       0.000       2544.    
        2509.       2466.       2438.       2412.       2389.       2370.       2355.       2342.       2333.       2320.    
        2306.       2287.       2270.       2250.       2230.       2214.       2194.       2173.       2162.       2149.    
        2136.       2126.       2119.       2110.       2100.       2094.       2086.       2079.       2073.       2063.    
        2055.       2050.       2054.       2051.       2050.       2044.       2033.       2022.       2018.       2018.    
        2020.       2023.       2026.       2023.       2014.       2001.       1999.       2011.       2021.       2022.    
        2026.       2031.       2036.       2040.       2040.       2036.       2037.       2043.       2052.       2056.    
        2056.       2055.       2038.       2040.       2046.       2049.       0.000       0.000       0.000       0.000    
        0.000    
  32    0.000       0.000       0.000       0.000       0.000       0.000       0.000       0.000       2555.       2543.    
        2519.       2480.       2451.       2418.       2387.       2368.       2355.       2343.       2335.       2325.    
        2309.       2294.       2276.       2253.       2231.       2212.       2192.       2179.       2172.       2157.    
        2141.       2130.       2123.       2115.       2104.       2094.       2087.       2082.       2077.       2067.    
        2058.       2059.       2072.       2075.       2074.       2062.       2040.       2024.       2017.       2013.    
        2010.       2012.       2018.       2016.       2011.       1999.       1994.       1999.       2008.       2010.    
        2017.       2023.       2030.       2035.       2034.       2029.       2032.       2040.       2049.       2054.    
        2050.       2048.       2034.       2036.       2041.       2044.       0.000       0.000       0.000       0.000    
        0.000    
  33    0.000       0.000       0.000       0.000       0.000       0.000       0.000       0.000       2554.       2551.    
        2517.       2481.       2450.       2419.       2388.       2374.       2362.       2353.       2346.       2336.    
        2320.       2301.       2274.       2253.       2232.       2212.       2199.       2191.       2180.       2162.    
        2145.       2134.       2126.       2116.       2108.       2102.       2095.       2088.       2084.       2070.    
        2061.       2067.       2077.       2079.       2078.       2068.       2046.       2027.       2019.       2014.    
        2011.       2004.       2005.       2008.       2005.       1999.       1991.       1991.       1994.       2000.    
        2006.       2014.       2021.       2025.       2024.       2021.       2027.       2037.       2044.       2047.    
        2044.       2042.       2030.       2029.       2037.       2039.       0.000       0.000       0.000       0.000    
        0.000    
  34    0.000       0.000       0.000       0.000       0.000       0.000       2558.       2548.       2550.       2538.    
        2508.       2471.       2442.       2415.       2396.       2386.       2379.       2373.       2367.       2356.    
        2336.       2307.       2276.       2257.       2239.       2221.       2211.       2207.       2195.       2172.    
        2155.       2142.       2130.       2121.       2114.       2107.       2099.       2095.       2089.       2075.    
        2066.       2068.       2077.       2080.       2074.       2060.       2049.       2033.       2023.       2020.    
        2016.       2004.       1994.       1991.       1993.       1991.       1990.       1987.       1986.       1988.    
        1993.       2002.       2008.       2010.       2010.       2012.       2022.       2032.       2039.       2040.    
        2036.       2035.       2026.       2018.       2029.       2034.       0.000       0.000       0.000       0.000    
        0.000    
  35    0.000       0.000       0.000       0.000       0.000       2574.       2555.       2542.       2536.       2524.    
        2491.       2455.       2430.       2409.       2397.       2390.       2382.       2377.       2372.       2367.    
        2348.       2318.       2281.       2260.       2246.       2224.       2211.       2205.       2197.       2177.    
        2161.       2147.       2136.       2128.       2119.       2111.       2104.       2099.       2092.       2077.    
        2070.       2072.       2080.       2079.       2065.       2055.       2045.       2033.       2028.       2026.    
        2015.       2003.       1995.       1990.       1986.       1984.       1989.       1989.       1981.       1981.    
        1983.       1988.       1993.       1996.       1997.       2004.       2014.       2024.       2031.       2032.    
        2030.       2028.       2019.       2011.       2020.       2028.       0.000       0.000       0.000       0.000    
        0.000    
  36    0.000       0.000       0.000       0.000       0.000       2571.       2554.       2536.       2526.       2504.    
        2471.       2440.       2417.       2397.       2387.       2379.       2368.       2359.       2358.       2359.    
        2352.       2330.       2293.       2268.       2248.       2232.       2218.       2197.       2185.       2173.    
        2161.       2151.       2142.       2132.       2121.       2113.       2107.       2103.       2094.       2077.    
        2074.       2080.       2085.       2084.       2066.       2055.       2044.       2037.       2037.       2033.    
        2017.       2005.       1997.       1992.       1987.       1983.       1980.       1979.       1977.       1976.    
        1976.       1978.       1980.       1982.       1989.       1998.       2006.       2013.       2018.       2019.    
        2023.       2019.       2007.       2009.       2020.       2026.       0.000       0.000       0.000       0.000    
        0.000    
  37    0.000       0.000       0.000       0.000       0.000       2571.       2554.       2534.       2514.       2484.    
        2453.       2423.       2402.       2383.       2369.       2359.       2349.       2342.       2339.       2339.    
        2338.       2326.       2298.       2269.       2254.       2249.       2235.       2216.       2200.       2187.    
        2175.       2158.       2144.       2133.       2123.       2117.       2112.       2104.       2092.       2081.    
        2088.       2093.       2093.       2090.       2079.       2061.       2048.       2048.       2051.       2045.    
        2028.       2012.       2000.       1994.       1989.       1985.       1982.       1979.       1975.       1974.    
        1973.       1973.       1973.       1976.       1984.       1991.       1996.       2000.       2004.       2003.    
        2001.       1997.       1995.       2007.       2017.       2023.       0.000       0.000       0.000       0.000    
        0.000    
  38    0.000       0.000       0.000       0.000       0.000       2571.       2554.       2534.       2502.       2471.    
        2438.       2412.       2388.       2367.       2359.       2351.       2344.       2337.       2332.       2326.    
        2318.       2308.       2294.       2288.       2276.       2259.       2241.       2226.       2210.       2197.    
        2181.       2161.       2146.       2137.       2129.       2121.       2114.       2104.       2090.       2094.    
        2105.       2105.       2102.       2096.       2087.       2068.       2055.       2058.       2063.       2055.    
        2037.       2016.       2005.       1998.       1992.       1987.       1985.       1982.       1978.       1974.    
        1972.       1971.       1970.       1973.       1979.       1983.       1986.       1986.       1989.       1988.    
        1984.       1977.       1982.       1995.       2011.       2016.       2018.       0.000       0.000       0.000    
        0.000    
  39    0.000       0.000       0.000       0.000       0.000       2573.       2556.       2525.       2487.       2455.    
        2426.       2405.       2382.       2364.       2359.       2352.       2346.       2341.       2340.       2338.    
        2332.       2326.       2316.       2305.       2285.       2267.       2251.       2235.       2215.       2197.    
        2182.       2163.       2150.       2142.       2133.       2125.       2115.       2102.       2094.       2108.    
        2116.       2113.       2109.       2103.       2090.       2075.       2066.       2068.       2074.       2060.    
        2040.       2024.       2012.       2004.       1998.       1994.       1991.       1987.       1983.       1976.    
        1975.       1973.       1970.       1968.       1968.       1972.       1975.       1973.       1973.       1972.    
        1970.       1968.       1971.       1982.       1999.       2013.       2015.       0.000       0.000       0.000    
        0.000    
  40    0.000       0.000       0.000       0.000       2577.       2567.       2542.       2504.       2475.       2440.    
        2412.       2399.       2388.       2372.       2367.       2361.       2355.       2355.       2356.       2357.    
        2354.       2344.       2328.       2311.       2295.       2277.       2258.       2235.       2213.       2196.    
        2182.       2166.       2153.       2144.       2136.       2126.       2115.       2103.       2103.       2119.    
        2126.       2122.       2117.       2115.       2100.       2082.       2075.       2071.       2078.       2075.    
        2058.       2034.       2020.       2013.       2008.       2004.       1999.       1999.       1995.       1989.    
        1986.       1976.       1974.       1973.       1971.       1965.       1962.       1961.       1960.       1959.    
        1959.       1960.       1963.       1971.       1986.       2003.       2010.       2010.       0.000       0.000    
        0.000    
  41    0.000       0.000       0.000       0.000       2577.       2555.       2522.       2486.       2461.       2427.    
        2402.       2394.       2388.       2385.       2385.       2376.       2374.       2374.       2372.       2371.    
        2367.       2350.       2328.       2311.       2294.       2275.       2255.       2230.       2213.       2200.    
        2187.       2172.       2156.       2144.       2137.       2125.       2114.       2105.       2114.       2132.    
        2141.       2133.       2123.       2121.       2118.       2095.       2082.       2080.       2089.       2088.    
        2076.       2048.       2033.       2027.       2024.       2022.       2017.       2016.       2010.       2011.    
        2003.       1986.       1979.       1981.       1988.       1993.       1987.       1971.       1959.       1957.    
        1953.       1953.       1952.       1958.       1967.       1977.       1985.       1988.       1995.       0.000    
        0.000    
  42    0.000       0.000       0.000       2590.       2572.       2540.       2506.       2472.       2444.       2417.    
        2401.       2397.       2400.       2406.       2407.       2402.       2401.       2392.       2378.       2367.    
        2351.       2336.       2319.       2304.       2287.       2270.       2253.       2231.       2216.       2206.    
        2193.       2178.       2161.       2147.       2137.       2124.       2113.       2109.       2122.       2143.    
        2152.       2145.       2131.       2121.       2119.       2111.       2091.       2093.       2101.       2097.    
        2087.       2069.       2057.       2047.       2046.       2042.       2036.       2032.       2027.       2020.    
        2006.       1992.       1986.       1991.       2001.       2006.       2005.       2001.       1980.       1957.    
        1951.       1947.       1944.       1946.       1951.       1957.       1964.       1966.       1965.       0.000    
        0.000    
  43    0.000       0.000       0.000       2594.       2561.       2522.       2493.       2469.       2441.       2420.    
        2410.       2414.       2418.       2425.       2428.       2427.       2421.       2405.       2374.       2353.    
        2338.       2323.       2310.       2297.       2281.       2266.       2250.       2237.       2225.       2207.    
        2196.       2181.       2165.       2149.       2142.       2136.       2126.       2113.       2120.       2139.    
        2147.       2144.       2137.       2124.       2118.       2113.       2099.       2104.       2110.       2108.    
        2102.       2094.       2083.       2074.       2068.       2063.       2053.       2043.       2032.       2019.    
        2006.       1995.       1993.       2002.       2010.       2013.       2014.       2012.       2000.       1968.    
        1956.       1949.       1944.       1941.       1940.       1942.       1945.       1946.       1942.       1937.    
        0.000    
  44    0.000       0.000       2611.       2583.       2556.       2533.       2505.       2478.       2453.       2434.    
        2428.       2430.       2434.       2443.       2445.       2443.       2437.       2421.       2393.       2367.    
        2344.       2324.       2310.       2297.       2283.       2272.       2257.       2241.       2230.       2215.    
        2199.       2182.       2169.       2156.       2149.       2146.       2143.       2127.       2118.       2129.    
        2138.       2140.       2139.       2131.       2118.       2108.       2102.       2110.       2115.       2120.    
        2120.       2115.       2107.       2100.       2091.       2080.       2067.       2053.       2032.       2020.    
        2011.       2000.       2001.       2011.       2018.       2021.       2020.       2015.       1998.       1976.    
        1961.       1953.       1947.       1942.       1939.       1936.       1935.       1934.       1932.       1928.    
        0.000    
  45    0.000       2631.       2590.       2556.       2537.       2533.       2515.       2491.       2462.       2446.    
        2444.       2443.       2452.       2456.       2458.       2459.       2457.       2441.       2414.       2385.    
        2356.       2333.       2315.       2304.       2288.       2276.       2261.       2242.       2229.       2217.    
        2201.       2184.       2173.       2163.       2156.       2152.       2149.       2138.       2122.       2124.    
        2133.       2140.       2144.       2141.       2128.       2113.       2105.       2110.       2119.       2127.    
        2133.       2135.       2134.       2127.       2115.       2098.       2077.       2058.       2035.       2022.    
        2014.       2006.       2008.       2015.       2025.       2026.       2024.       2014.       1997.       1978.    
        1965.       1955.       1949.       1944.       1941.       1938.       1936.       1934.       1932.       1928.    
        0.000    
  46    0.000       2624.       2572.       2538.       2536.       2535.       2523.       2501.       2480.       2462.    
        2452.       2456.       2466.       2468.       2470.       2473.       2476.       2463.       2431.       2403.    
        2372.       2347.       2327.       2311.       2299.       2286.       2266.       2244.       2227.       2215.    
        2203.       2188.       2175.       2166.       2159.       2154.       2149.       2138.       2126.       2125.    
        2133.       2143.       2150.       2152.       2142.       2125.       2109.       2111.       2125.       2136.    
        2146.       2153.       2157.       2151.       2133.       2113.       2086.       2059.       2039.       2027.    
        2020.       2011.       2012.       2018.       2026.       2029.       2025.       2012.       2000.       1977.    
        1965.       1956.       1950.       1946.       1943.       1943.       1940.       1938.       0.000       0.000    
        0.000    
  47    2649.       2623.       2570.       2541.       2529.       2521.       2521.       2517.       2493.       2473.    
        2473.       2481.       2482.       2481.       2483.       2486.       2489.       2473.       2442.       2415.    
        2387.       2358.       2337.       2321.       2309.       2296.       2272.       2249.       2229.       2212.    
        2202.       2189.       2176.       2167.       2159.       2152.       2145.       2134.       2127.       2128.    
        2136.       2147.       2156.       2161.       2157.       2138.       2117.       2112.       2128.       2143.    
        2158.       2172.       2175.       2164.       2147.       2124.       2092.       2062.       2043.       2033.    
        2027.       2018.       2019.       2022.       2027.       2029.       2020.       2012.       1999.       1982.    
        1971.       1961.       1954.       1950.       1951.       1950.       1948.       1944.       0.000       0.000    
        0.000    
  48    0.000       2631.       2589.       2554.       2537.       2525.       2540.       2536.       2505.       2496.    
        2499.       2504.       2500.       2494.       2496.       2500.       2500.       2484.       2461.       2429.    
        2402.       2371.       2347.       2330.       2315.       2300.       2277.       2254.       2232.       2212.    
        2198.       2187.       2176.       2166.       2158.       2149.       2142.       2133.       2129.       2131.    
        2139.       2149.       2159.       2165.       2167.       2152.       2125.       2115.       2124.       2144.    
        2169.       2185.       2192.       2177.       2159.       2135.       2101.       2072.       2049.       2035.    
        2029.       2026.       2027.       2028.       2032.       2025.       2016.       2008.       1998.       1986.    
        1976.       1962.       1957.       1957.       1964.       1960.       1956.       0.000       0.000       0.000    
        0.000    
  49    0.000       0.000       2618.       2588.       2565.       2552.       2568.       2560.       2543.       2522.    
        2523.       2525.       2521.       2509.       2509.       2513.       2513.       2496.       2475.       2445.    
        2417.       2388.       2358.       2338.       2319.       2303.       2282.       2259.       2236.       2212.    
        2195.       2183.       2173.       2164.       2156.       2147.       2141.       2134.       2132.       2133.    
        2141.       2150.       2161.       2169.       2174.       2163.       2137.       2118.       2120.       2140.    
        2172.       2196.       2207.       2194.       2169.       2145.       2112.       2080.       2054.       2039.    
        2034.       2035.       2036.       2034.       2031.       2023.       2013.       2005.       1995.       1984.    
        1974.       1966.       1963.       1969.       1978.       1974.       0.000       0.000       0.000       0.000    
        0.000    
  50    0.000       0.000       0.000       2622.       2603.       2595.       2591.       2589.       2582.       2559.    
        2553.       2544.       2533.       2526.       2523.       2526.       2523.       2506.       2483.       2453.    
        2426.       2401.       2370.       2347.       2325.       2309.       2287.       2261.       2236.       2210.    
        2197.       2182.       2170.       2161.       2153.       2146.       2141.       2136.       2135.       2142.    
        2152.       2161.       2169.       2178.       2181.       2175.       2150.       2126.       2121.       2136.    
        2170.       2199.       2214.       2205.       2181.       2152.       2120.       2089.       2066.       2049.    
        2042.       2044.       2044.       2040.       2030.       2022.       2013.       2005.       1995.       1984.    
        1976.       1972.       1969.       1974.       1986.       1991.       0.000       0.000       0.000       0.000    
        0.000    
  51    0.000       0.000       0.000       0.000       0.000       0.000       0.000       0.000       2610.       2594.    
        2574.       2557.       2540.       0.000       0.000       2538.       2535.       2516.       2487.       2456.    
        2431.       2408.       2380.       2354.       2331.       2313.       2291.       2264.       2238.       2214.    
        2196.       2182.       2169.       2159.       2153.       2147.       2142.       2138.       2144.       2155.    
        2165.       2175.       2188.       2197.       2199.       2192.       2166.       2138.       2127.       2135.    
        2168.       2199.       2220.       2215.       2192.       2160.       2127.       2099.       2077.       2060.    
        2050.       2052.       2054.       2048.       2033.       2023.       2015.       2007.       1997.       1989.    
        1982.       1977.       1976.       1980.       1990.       1998.       0.000       0.000       0.000       0.000    
        0.000    
  52    0.000       0.000       0.000       0.000       0.000       0.000       0.000       0.000       0.000       0.000    
        0.000       0.000       0.000       0.000       0.000       0.000       2537.       2518.       2488.       2460.    
        2433.       2410.       2387.       2360.       2339.       2318.       2293.       2266.       2240.       2216.    
        2197.       2181.       2168.       2158.       2154.       2149.       2144.       2144.       2153.       2166.    
        2180.       2194.       2209.       2220.       2224.       2211.       2179.       2154.       2143.       2143.    
        2169.       2200.       2221.       2221.       2198.       2166.       2134.       2108.       2085.       2073.    
        2059.       2060.       2065.       2061.       2043.       2028.       2019.       2011.       2002.       1994.    
        1989.       1984.       1985.       1989.       1997.       2007.       0.000       0.000       0.000       0.000    
        0.000    
  53    0.000       0.000       0.000       0.000       0.000       0.000       0.000       0.000       0.000       0.000    
        0.000       0.000       0.000       0.000       0.000       0.000       0.000       2514.       2486.       2459.    
        2432.       2409.       2391.       2374.       2350.       2320.       2293.       2267.       2241.       2217.    
        2199.       2182.       2170.       2159.       2154.       2149.       2148.       2150.       2161.       2174.    
        2193.       2213.       2230.       2241.       2245.       2225.       2192.       2168.       2157.       2154.    
        2171.       2202.       2222.       2225.       2198.       2167.       2138.       2113.       2093.       2081.    
        2070.       2070.       2074.       2072.       2056.       2034.       2022.       2015.       2007.       2001.    
        1995.       1992.       1995.       2000.       2006.       2013.       0.000       0.000       0.000       0.000    
        0.000    
  54    0.000       0.000       0.000       0.000       0.000       0.000       0.000       0.000       0.000       0.000    
        0.000       0.000       0.000       0.000       0.000       0.000       0.000       0.000       2483.       2457.    
        2429.       2406.       2391.       2381.       2350.       2321.       2293.       2269.       2242.       2218.    
        2200.       2182.       2170.       2161.       2155.       2151.       2150.       2155.       2163.       2177.    
        2196.       2219.       2238.       2253.       2258.       2232.       2201.       2181.       2169.       2162.    
        2177.       2204.       2224.       2228.       2200.       2167.       2143.       2118.       2099.       2089.    
        2081.       2080.       2079.       2077.       2066.       2042.       2028.       2021.       2016.       2013.    
        2001.       1998.       2004.       2010.       2013.       2019.       0.000       0.000       0.000       0.000    
        0.000    
  55    0.000       0.000       0.000       0.000       0.000       0.000       0.000       0.000       0.000       0.000    
        0.000       0.000       0.000       0.000       0.000       0.000       0.000       0.000       2481.       2452.    
        2422.       2402.       2388.       2371.       2344.       2321.       2294.       2268.       2242.       2220.    
        2202.       2185.       2172.       2162.       2155.       2152.       2153.       2158.       2165.       2178.    
        2196.       2216.       2236.       2254.       2263.       2244.       2213.       2194.       2181.       2173.    
        2182.       2207.       2229.       2233.       2200.       2172.       2152.       2129.       2107.       2099.    
        2094.       2089.       2085.       2080.       2066.       2048.       2036.       2030.       2029.       2025.    
        2011.       2004.       2013.       2018.       2022.       2027.       0.000       0.000       0.000       0.000    
        0.000    
  56    0.000       0.000       0.000       0.000       0.000       0.000       0.000       0.000       0.000       0.000    
        0.000       0.000       0.000       0.000       0.000       0.000       0.000       0.000       0.000       0.000    
        0.000       2397.       2384.       2366.       2341.       2319.       2293.       2265.       2242.       2221.    
        2204.       2184.       2173.       2163.       2156.       2154.       2155.       2160.       2168.       2181.    
        2199.       2218.       2237.       2256.       2269.       2264.       2230.       2208.       2194.       2185.    
        2191.       2212.       2236.       2236.       2202.       2180.       2161.       2139.       2118.       2110.    
        2105.       2098.       2091.       2087.       2071.       2053.       2044.       2042.       2041.       2036.    
        2022.       2011.       2023.       2031.       2034.       2040.       0.000       0.000       0.000       0.000    
        0.000    
  57    0.000       0.000       0.000       0.000       0.000       0.000       0.000       0.000       0.000       0.000    
        0.000       0.000       0.000       0.000       0.000       0.000       0.000       0.000       0.000       0.000    
        0.000       0.000       2379.       2363.       2340.       2317.       2294.       2264.       2242.       2220.    
        2203.       2185.       2174.       2165.       2158.       2156.       2156.       2162.       2170.       2185.    
        2203.       2222.       2243.       2263.       2277.       2276.       2249.       2224.       2209.       2200.    
        2202.       2220.       2244.       2242.       2209.       2188.       2169.       2149.       2129.       2121.    
        2116.       2109.       2098.       2091.       2078.       2064.       2052.       2055.       2054.       2051.    
        2036.       2023.       2034.       2049.       2051.       2057.       0.000       0.000       0.000       0.000    
        0.000    
  58    0.000       0.000       0.000       0.000       0.000       0.000       0.000       0.000       0.000       0.000    
        0.000       0.000       0.000       0.000       0.000       0.000       0.000       0.000       0.000       0.000    
        0.000       0.000       0.000       2360.       2342.       2317.       2297.       2264.       2242.       2222.    
        2207.       2188.       2175.       2167.       2161.       2158.       2158.       2164.       2173.       2188.    
        2207.       2227.       2249.       2272.       2290.       2286.       2265.       2239.       2225.       2216.    
        2213.       2228.       2254.       2248.       2219.       2199.       2179.       2160.       2142.       2136.    
        2131.       2121.       2106.       2094.       2083.       2071.       2064.       2066.       2068.       2067.    
        2052.       2036.       2043.       2055.       2061.       2064.       0.000       0.000       0.000       0.000    
        0.000    
  59    0.000       0.000       0.000       0.000       0.000       0.000       0.000       0.000       0.000       0.000    
        0.000       0.000       0.000       0.000       0.000       0.000       0.000       0.000       0.000       0.000    
        0.000       0.000       0.000       0.000       0.000       0.000       0.000       0.000       0.000       2220.    
        2208.       2191.       2175.       2167.       2162.       2159.       2161.       2167.       2176.       2191.    
        2210.       2231.       2252.       2277.       2300.       2300.       2277.       2252.       2236.       2228.    
        2226.       2237.       2260.       2253.       2230.       2214.       2194.       2174.       2157.       2151.    
        2146.       2135.       2117.       2101.       2091.       2080.       2074.       2079.       2083.       2083.    
        2063.       2047.       2054.       2061.       2067.       2069.       0.000       0.000       0.000       0.000    
        0.000    
  60    0.000       0.000       0.000       0.000       0.000       0.000       0.000       0.000       0.000       0.000    
        0.000       0.000       0.000       0.000       0.000       0.000       0.000       0.000       0.000       0.000    
        0.000       0.000       0.000       0.000       0.000       0.000       0.000       0.000       0.000       0.000    
        0.000       2193.       2179.       2168.       2164.       2162.       2164.       2169.       2179.       2193.    
        2212.       2233.       2254.       2279.       2307.       2312.       2295.       2266.       2245.       2238.    
        2235.       2243.       2261.       2258.       2243.       2226.       2207.       2189.       2174.       2168.    
        2160.       2148.       2128.       2112.       2100.       2091.       2086.       2089.       2092.       2092.    
        2066.       2059.       2065.       2073.       2074.       2075.       0.000       0.000       0.000       0.000    
        0.000    
  61    0.000       0.000       0.000       0.000       0.000       0.000       0.000       0.000       0.000       0.000    
        0.000       0.000       0.000       0.000       0.000       0.000       0.000       0.000       0.000       0.000    
        0.000       0.000       0.000       0.000       0.000       0.000       0.000       0.000       0.000       0.000    
        0.000       0.000       2181.       2170.       2166.       2164.       2165.       2170.       2180.       2193.    
        2213.       2235.       2256.       2279.       2307.       2320.       2309.       2278.       2258.       2248.    
        2245.       2248.       2263.       2268.       2256.       2239.       2220.       2204.       2193.       2190.    
        2180.       2159.       2139.       2123.       2113.       2101.       2098.       2099.       2095.       2088.    
        2073.       2073.       2075.       2078.       2079.       2080.       0.000       0.000       0.000       0.000    
        0.000    
  62    0.000       0.000       0.000       0.000       0.000       0.000       0.000       0.000       0.000       0.000    
        0.000       0.000       0.000       0.000       0.000       0.000       0.000       0.000       0.000       0.000    
        0.000       0.000       0.000       0.000       0.000       0.000       0.000       0.000       0.000       0.000    
        0.000       0.000       0.000       2174.       2169.       0.000       0.000       0.000       0.000       0.000    
        0.000       0.000       0.000       0.000       0.000       0.000       2321.       2297.       2272.       2260.    
        2254.       2255.       2269.       2276.       2270.       2254.       2235.       2217.       2209.       2210.    
        2198.       2175.       2151.       2135.       2126.       2115.       2112.       2105.       2095.       2085.    
        2081.       2084.       2083.       2083.       2084.       2085.       0.000       0.000       0.000       0.000    
        0.000    
  63    0.000       0.000       0.000       0.000       0.000       0.000       0.000       0.000       0.000       0.000    
        0.000       0.000       0.000       0.000       0.000       0.000       0.000       0.000       0.000       0.000    
        0.000       0.000       0.000       0.000       0.000       0.000       0.000       0.000       0.000       0.000    
        0.000       0.000       0.000       0.000       0.000       0.000       0.000       0.000       0.000       0.000    
        0.000       0.000       0.000       0.000       0.000       0.000       2330.       2315.       2292.       2278.    
        2267.       2264.       2275.       2285.       2285.       2271.       2254.       2237.       2227.       2226.    
        2212.       2187.       2166.       2149.       2136.       2127.       2121.       2106.       2095.       2089.    
        2091.       2091.       2089.       2091.       2094.       2097.       0.000       0.000       0.000       0.000    
        0.000    
  64    0.000       0.000       0.000       0.000       0.000       0.000       0.000       0.000       0.000       0.000    
        0.000       0.000       0.000       0.000       0.000       0.000       0.000       0.000       0.000       0.000    
        0.000       0.000       0.000       0.000       0.000       0.000       0.000       0.000       0.000       0.000    
        0.000       0.000       0.000       0.000       0.000       0.000       0.000       0.000       0.000       0.000    
        0.000       0.000       0.000       0.000       0.000       0.000       0.000       2326.       2314.       2306.    
        2286.       2274.       2280.       2293.       2300.       2291.       2277.       2263.       2249.       2242.    
        2227.       2204.       2181.       2162.       2148.       2131.       2118.       2106.       2099.       2097.    
        2099.       2097.       2097.       2101.       2106.       2110.       0.000       0.000       0.000       0.000    
        0.000    
  65    0.000       0.000       0.000       0.000       0.000       0.000       0.000       0.000       0.000       0.000    
        0.000       0.000       0.000       0.000       0.000       0.000       0.000       0.000       0.000       0.000    
        0.000       0.000       0.000       0.000       0.000       0.000       0.000       0.000       0.000       0.000    
        0.000       0.000       0.000       0.000       0.000       0.000       0.000       0.000       0.000       0.000    
        0.000       0.000       0.000       0.000       0.000       0.000       0.000       0.000       2325.       2321.    
        2301.       2283.       2284.       2296.       2308.       2309.       2297.       2284.       2272.       2261.    
        2244.       2220.       2192.       2170.       2153.       2132.       2118.       2109.       2105.       2105.    
        2105.       2105.       2108.       2113.       2116.       2117.       0.000       0.000       0.000       0.000    
        0.000    
  66    0.000       0.000       0.000       0.000       0.000       0.000       0.000       0.000       0.000       0.000    
        0.000       0.000       0.000       0.000       0.000       0.000       0.000       0.000       0.000       0.000    
        0.000       0.000       0.000       0.000       0.000       0.000       0.000       0.000       0.000       0.000    
        0.000       0.000       0.000       0.000       0.000       0.000       0.000       0.000       0.000       0.000    
        0.000       0.000       0.000       0.000       0.000       0.000       0.000       0.000       0.000       2331.    
        2312.       2296.       2292.       2302.       2317.       2323.       2314.       2301.       2287.       2272.    
        2255.       2229.       2200.       2172.       2154.       2135.       2121.       2113.       2112.       2112.    
        2111.       2113.       2117.       2121.       2123.       2124.       0.000       0.000       0.000       0.000    
        0.000    
  67    0.000       0.000       0.000       0.000       0.000       0.000       0.000       0.000       0.000       0.000    
        0.000       0.000       0.000       0.000       0.000       0.000       0.000       0.000       0.000       0.000    
        0.000       0.000       0.000       0.000       0.000       0.000       0.000       0.000       0.000       0.000    
        0.000       0.000       0.000       0.000       0.000       0.000       0.000       0.000       0.000       0.000    
        0.000       0.000       0.000       0.000       0.000       0.000       0.000       0.000       0.000       2333.    
        2319.       2305.       2298.       2307.       2325.       2335.       2326.       2314.       2297.       2277.    
        2257.       2232.       2202.       2170.       2153.       2135.       2124.       2119.       2118.       2118.    
        2118.       2120.       2124.       2129.       2131.       2132.       0.000       0.000       0.000       0.000    
        0.000    
  68    0.000       0.000       0.000       0.000       0.000       0.000       0.000       0.000       0.000       0.000    
        0.000       0.000       0.000       0.000       0.000       0.000       0.000       0.000       0.000       0.000    
        0.000       0.000       0.000       0.000       0.000       0.000       0.000       0.000       0.000       0.000    
        0.000       0.000       0.000       0.000       0.000       0.000       0.000       0.000       0.000       0.000    
        0.000       0.000       0.000       0.000       0.000       0.000       0.000       0.000       0.000       0.000    
        2322.       2307.       2301.       2307.       2323.       2343.       2336.       2321.       2299.       2277.    
        2257.       2230.       2201.       2170.       2154.       2138.       2132.       2126.       2125.       2124.    
        2122.       2126.       2131.       2136.       2140.       2141.       0.000       0.000       0.000       0.000    
        0.000    
  69    0.000       0.000       0.000       0.000       0.000       0.000       0.000       0.000       0.000       0.000    
        0.000       0.000       0.000       0.000       0.000       0.000       0.000       0.000       0.000       0.000    
        0.000       0.000       0.000       0.000       0.000       0.000       0.000       0.000       0.000       0.000    
        0.000       0.000       0.000       0.000       0.000       0.000       0.000       0.000       0.000       0.000    
        0.000       0.000       0.000       0.000       0.000       0.000       0.000       0.000       0.000       0.000    
        0.000       0.000       0.000       0.000       0.000       0.000       2341.       2323.       2301.       2279.    
        2257.       2228.       2199.       2172.       2157.       2148.       2143.       2136.       2134.       2131.    
        2128.       2131.       2136.       2142.       2148.       2149.       0.000       0.000       0.000       0.000    
        0.000    
  70    0.000       0.000       0.000       0.000       0.000       0.000       0.000       0.000       0.000       0.000    
        0.000       0.000       0.000       0.000       0.000       0.000       0.000       0.000       0.000       0.000    
        0.000       0.000       0.000       0.000       0.000       0.000       0.000       0.000       0.000       0.000    
        0.000       0.000       0.000       0.000       0.000       0.000       0.000       0.000       0.000       0.000    
        0.000       0.000       0.000       0.000       0.000       0.000       0.000       0.000       0.000       0.000    
        0.000       0.000       0.000       0.000       0.000       0.000       2347.       2328.       2305.       2282.    
        2256.       2227.       2201.       2178.       2164.       2156.       2147.       2141.       2136.       2132.    
        2131.       2134.       2139.       2145.       2151.       0.000       0.000       0.000       0.000       0.000    
        0.000    
  71    0.000       0.000       0.000       0.000       0.000       0.000       0.000       0.000       0.000       0.000    
        0.000       0.000       0.000       0.000       0.000       0.000       0.000       0.000       0.000       0.000    
        0.000       0.000       0.000       0.000       0.000       0.000       0.000       0.000       0.000       0.000    
        0.000       0.000       0.000       0.000       0.000       0.000       0.000       0.000       0.000       0.000    
        0.000       0.000       0.000       0.000       0.000       0.000       0.000       0.000       0.000       0.000    
        0.000       0.000       0.000       0.000       0.000       0.000       0.000       2338.       2314.       2287.    
        2260.       2234.       2208.       2180.       0.000       0.000       0.000       0.000       0.000       0.000    
        0.000       0.000       0.000       0.000       2155.       0.000       0.000       0.000       0.000       0.000    
        0.000    
  72    0.000       0.000       0.000       0.000       0.000       0.000       0.000       0.000       0.000       0.000    
        0.000       0.000       0.000       0.000       0.000       0.000       0.000       0.000       0.000       0.000    
        0.000       0.000       0.000       0.000       0.000       0.000       0.000       0.000       0.000       0.000    
        0.000       0.000       0.000       0.000       0.000       0.000       0.000       0.000       0.000       0.000    
        0.000       0.000       0.000       0.000       0.000       0.000       0.000       0.000       0.000       0.000    
        0.000       0.000       0.000       0.000       0.000       0.000       0.000       0.000       2323.       2295.    
        2267.       2240.       0.000       0.000       0.000       0.000       0.000       0.000       0.000       0.000    
        0.000       0.000       0.000       0.000       0.000       0.000       0.000       0.000       0.000       0.000    
        0.000    
  73    0.000       0.000       0.000       0.000       0.000       0.000       0.000       0.000       0.000       0.000    
        0.000       0.000       0.000       0.000       0.000       0.000       0.000       0.000       0.000       0.000    
        0.000       0.000       0.000       0.000       0.000       0.000       0.000       0.000       0.000       0.000    
        0.000       0.000       0.000       0.000       0.000       0.000       0.000       0.000       0.000       0.000    
        0.000       0.000       0.000       0.000       0.000       0.000       0.000       0.000       0.000       0.000    
        0.000       0.000       0.000       0.000       0.000       0.000       0.000       0.000       2329.       2305.    
        2274.       0.000       0.000       0.000       0.000       0.000       0.000       0.000       0.000       0.000    
        0.000       0.000       0.000       0.000       0.000       0.000       0.000       0.000       0.000       0.000    
        0.000    



             MODEL LAYER BOTTOM EL. FOR LAYER   1
 READING ON UNIT   11 WITH FORMAT: (FREE)              



             MODEL LAYER BOTTOM EL. FOR LAYER   2
 READING ON UNIT   11 WITH FORMAT: (FREE)              


 STRESS PERIOD     LENGTH       TIME STEPS     MULTIPLIER FOR DELT    SS FLAG
 ----------------------------------------------------------------------------
        1         1.000000          1                    1.000         SS
        2         5844.000       5844                    1.000         TR

 COMBINED STEADY-STATE AND TRANSIENT SIMULATION



 
 # BAS6 package for  MODFLOW-NWT, generated by Flopy.                            
 THE FREE FORMAT OPTION HAS BEEN SELECTED



                     BOUNDARY ARRAY FOR LAYER   1
 READING ON UNIT    8 WITH FORMAT: (FREE)              



                     BOUNDARY ARRAY FOR LAYER   2
 READING ON UNIT    8 WITH FORMAT: (FREE)              

 AQUIFER HEAD WILL BE SET TO  -999.00     AT ALL NO-FLOW NODES (IBOUND=0).



                       INITIAL HEAD FOR LAYER   1
 READING ON UNIT    8 WITH FORMAT: (FREE)              



                       INITIAL HEAD FOR LAYER   2
 READING ON UNIT    8 WITH FORMAT: (FREE)              
 # OC package for  MODFLOW-NWT, generated by Flopy.

 OUTPUT CONTROL IS SPECIFIED ONLY AT TIME STEPS FOR WHICH OUTPUT IS DESIRED
 HEADS WILL BE SAVED WITH FORMAT: (81F8.0)            
 SAVED HEADS WILL BE LABELED
 HEAD PRINT FORMAT CODE IS   4    DRAWDOWN PRINT FORMAT CODE IS   0
 HEADS WILL BE SAVED ON UNIT   58    DRAWDOWNS WILL BE SAVED ON UNIT    0

 LPF -- LAYER-PROPERTY FLOW PACKAGE, VERSION 7, 5/2/2005
         INPUT READ FROM UNIT   12
 # LPF package for  MODFLOW-NWT, generated by Flopy.
 HEAD AT CELLS THAT CONVERT TO DRY=  -9999.0    
 No named parameters

   LAYER FLAGS:
 LAYER       LAYTYP        LAYAVG         CHANI        LAYVKA        LAYWET
 ---------------------------------------------------------------------------
    1             1             0     1.000E+00             0             1
    2             0             0     1.000E+00             0             0

   INTERPRETATION OF LAYER FLAGS:
                        INTERBLOCK     HORIZONTAL    DATA IN
         LAYER TYPE   TRANSMISSIVITY   ANISOTROPY   ARRAY VKA   WETTABILITY
 LAYER      (LAYTYP)      (LAYAVG)       (CHANI)      (LAYVKA)      (LAYWET)
 ---------------------------------------------------------------------------
    1   CONVERTIBLE      HARMONIC     1.000E+00    VERTICAL K      WETTABLE
    2      CONFINED      HARMONIC     1.000E+00    VERTICAL K  NON-WETTABLE

 WETTING CAPABILITY IS ACTIVE IN   1 LAYERS
  WETTING FACTOR=   1.001000    
  WETTING ITERATION INTERVAL=           4
  IHDWET=           0



              HYD. COND. ALONG ROWS FOR LAYER   1
 READING ON UNIT   12 WITH FORMAT: (FREE)              

            1           2           3           4           5           6           7           8           9          10
           11          12          13          14          15          16          17          18          19          20
           21          22          23          24          25          26          27          28          29          30
           31          32          33          34          35          36          37          38          39          40
           41          42          43          44          45          46          47          48          49          50
           51          52          53          54          55          56          57          58          59          60
           61          62          63          64          65          66          67          68          69          70
           71          72          73          74          75          76          77          78          79          80
           81
 ........................................................................................................................
   1    0.000       0.000       0.000       0.000       0.000       0.000       0.000       0.000       0.000       0.000    
        0.000       0.000       0.000       0.000       0.000       0.000       0.000       0.000       0.000       0.000    
        0.000       0.000       0.000       0.000       0.000       0.000       0.000       0.000       0.000       0.000    
        0.000       0.000       0.000       0.000       0.000       0.000       0.000       0.000       0.000       0.000    
        0.000       0.000       0.000       0.000       0.000       0.000       0.000       0.000       0.000       0.000    
        0.000       0.000       0.000       0.000       0.000       0.000       0.000       0.000       0.000       0.000    
        0.000       0.000       0.000      2.6000E-02  2.6000E-02   0.000       0.000       0.000       0.000       0.000    
        0.000       0.000       0.000       0.000       0.000       0.000       0.000       0.000       0.000       0.000    
        0.000    
   2    0.000       0.000       0.000       0.000       0.000       0.000       0.000       0.000       0.000       0.000    
        0.000       0.000       0.000       0.000       0.000       0.000       0.000       0.000       0.000       0.000    
        0.000       0.000       0.000       0.000       0.000       0.000       0.000       0.000       0.000       0.000    
        0.000       0.000       0.000       0.000       0.000       0.000       0.000       0.000       0.000       0.000    
        0.000       0.000       0.000       0.000       0.000       0.000       0.000       0.000       0.000       0.000    
        0.000       0.000       0.000       0.000       0.000       0.000       0.000       0.000       0.000       0.000    
        0.000       0.000      2.6000E-02  6.5000E-02  6.5000E-02   0.000       0.000       0.000       0.000       0.000    
        0.000       0.000       0.000       0.000       0.000       0.000       0.000       0.000       0.000       0.000    
        0.000    
   3    0.000       0.000       0.000       0.000       0.000       0.000       0.000       0.000       0.000       0.000    
        0.000       0.000       0.000       0.000       0.000       0.000       0.000       0.000       0.000       0.000    
        0.000       0.000       0.000       0.000       0.000       0.000       0.000       0.000       0.000       0.000    
        0.000       0.000       0.000       0.000       0.000       0.000       0.000       0.000       0.000       0.000    
        0.000       0.000       0.000       0.000       0.000       0.000       0.000       0.000       0.000       0.000    
        0.000       0.000       0.000       0.000       0.000       0.000       0.000       0.000       0.000       0.000    
        0.000       0.000      6.5000E-02  6.5000E-02  0.1300       0.000       0.000       0.000       0.000       0.000    
        0.000       0.000       0.000       0.000       0.000       0.000       0.000       0.000       0.000       0.000    
        0.000    
   4    0.000       0.000       0.000       0.000       0.000       0.000       0.000       0.000       0.000       0.000    
        0.000       0.000       0.000       0.000       0.000       0.000       0.000       0.000       0.000       0.000    
        0.000       0.000       0.000       0.000       0.000       0.000       0.000       0.000       0.000       0.000    
        0.000       0.000       0.000       0.000       0.000       0.000       0.000       0.000       0.000       0.000    
        0.000       0.000       0.000       0.000       0.000       0.000       0.000       0.000       0.000       0.000    
        0.000       0.000       0.000       0.000       0.000       0.000       0.000       0.000       0.000       0.000    
        0.000      2.6000E-02  6.5000E-02  6.5000E-02  0.1300       0.000       0.000       0.000       0.000       0.000    
        0.000       0.000       0.000       0.000       0.000       0.000       0.000       0.000       0.000       0.000    
        0.000    
   5    0.000       0.000       0.000       0.000       0.000       0.000       0.000       0.000       0.000       0.000    
        0.000       0.000       0.000       0.000       0.000       0.000       0.000       0.000       0.000       0.000    
        0.000       0.000       0.000       0.000       0.000       0.000       0.000       0.000       0.000       0.000    
        0.000       0.000       0.000       0.000       0.000       0.000       0.000       0.000       0.000       0.000    
        0.000       0.000       0.000       0.000       0.000       0.000       0.000       0.000       0.000       0.000    
        0.000       0.000       0.000       0.000       0.000       0.000       0.000       0.000       0.000       0.000    
        0.000      6.5000E-02  6.5000E-02  6.5000E-02  0.1300      6.5000E-02   0.000       0.000       0.000       0.000    
        0.000       0.000       0.000       0.000       0.000       0.000       0.000       0.000       0.000       0.000    
        0.000    
   6    0.000       0.000       0.000       0.000       0.000       0.000       0.000       0.000       0.000       0.000    
        0.000       0.000       0.000       0.000       0.000       0.000       0.000       0.000       0.000       0.000    
        0.000       0.000       0.000       0.000       0.000       0.000       0.000       0.000       0.000       0.000    
        0.000       0.000       0.000       0.000       0.000       0.000       0.000       0.000       0.000       0.000    
        0.000       0.000       0.000       0.000       0.000       0.000       0.000       0.000       0.000       0.000    
        0.000       0.000       0.000       0.000       0.000       0.000       0.000       0.000       0.000       0.000    
        0.000      6.5000E-02  6.5000E-02  6.5000E-02  0.1300      0.1300      6.5000E-02   0.000       0.000       0.000    
        0.000       0.000       0.000       0.000       0.000       0.000       0.000       0.000       0.000       0.000    
        0.000    
   7    0.000       0.000       0.000       0.000       0.000       0.000       0.000       0.000       0.000       0.000    
        0.000       0.000       0.000       0.000       0.000       0.000       0.000       0.000       0.000       0.000    
        0.000       0.000       0.000       0.000       0.000       0.000       0.000       0.000       0.000       0.000    
        0.000       0.000       0.000       0.000       0.000       0.000       0.000       0.000       0.000       0.000    
        0.000       0.000       0.000       0.000       0.000       0.000       0.000       0.000       0.000       0.000    
        0.000       0.000       0.000       0.000       0.000       0.000       0.000       0.000       0.000       0.000    
       2.6000E-02  6.5000E-02  6.5000E-02  6.5000E-02  0.1300      0.1300      0.1300      6.5000E-02   0.000       0.000    
        0.000       0.000       0.000       0.000       0.000       0.000       0.000       0.000       0.000       0.000    
        0.000    
   8    0.000       0.000       0.000       0.000       0.000       0.000       0.000       0.000       0.000       0.000    
        0.000       0.000       0.000       0.000       0.000       0.000       0.000       0.000       0.000       0.000    
        0.000       0.000       0.000       0.000       0.000       0.000       0.000       0.000       0.000       0.000    
        0.000       0.000       0.000       0.000       0.000       0.000       0.000       0.000       0.000       0.000    
        0.000       0.000       0.000       0.000       0.000       0.000       0.000       0.000       0.000       0.000    
        0.000       0.000       0.000       0.000       0.000       0.000       0.000       0.000       0.000       0.000    
       5.2000E-02  6.5000E-02  6.5000E-02  6.5000E-02  0.1300      0.1300      0.1300      6.5000E-02  6.5000E-02  6.5000E-02
       6.5000E-02   0.000       0.000       0.000       0.000       0.000       0.000       0.000       0.000       0.000    
        0.000    
   9    0.000       0.000       0.000       0.000       0.000       0.000       0.000       0.000       0.000       0.000    
        0.000       0.000       0.000       0.000       0.000       0.000       0.000       0.000       0.000       0.000    
        0.000       0.000       0.000       0.000       0.000       0.000       0.000       0.000       0.000       0.000    
        0.000       0.000       0.000       0.000       0.000       0.000       0.000       0.000       0.000       0.000    
        0.000       0.000       0.000       0.000       0.000       0.000       0.000       0.000      5.2000E-02  5.2000E-02
        0.000       0.000       0.000       0.000       0.000       0.000       0.000       0.000      6.5000E-02  6.5000E-02
       6.5000E-02  6.5000E-02  6.5000E-02  6.5000E-02  0.1300      0.1300      0.1300      6.5000E-02  6.5000E-02  6.5000E-02
       6.5000E-02  6.5000E-02  6.5000E-02  6.5000E-02  6.5000E-02   0.000       0.000       0.000       0.000       0.000    
        0.000    
  10    0.000       0.000       0.000       0.000       0.000       0.000       0.000       0.000       0.000       0.000    
        0.000       0.000       0.000       0.000       0.000       0.000       0.000       0.000       0.000       0.000    
        0.000       0.000       0.000       0.000       0.000       0.000       0.000       0.000       0.000       0.000    
        0.000       0.000       0.000       0.000       0.000       0.000       0.000       0.000       0.000       0.000    
        0.000       0.000       0.000       0.000       0.000       0.000       0.000      5.2000E-02  5.2000E-02  5.2000E-02
       5.2000E-02  5.2000E-02  5.2000E-02   0.000       0.000       0.000      5.2000E-02  6.5000E-02  6.5000E-02  6.5000E-02
       6.5000E-02  6.5000E-02  6.5000E-02  6.5000E-02  0.1300      0.1300      0.1300      6.5000E-02  6.5000E-02  6.5000E-02
       6.5000E-02  6.5000E-02  6.5000E-02  6.5000E-02  6.5000E-02  6.5000E-02   0.000       0.000       0.000       0.000    
        0.000    
  11    0.000       0.000       0.000       0.000       0.000       0.000       0.000       0.000       0.000       0.000    
        0.000       0.000       0.000       0.000       0.000       0.000       0.000       0.000       0.000       0.000    
        0.000       0.000       0.000       0.000       0.000       0.000       0.000       0.000       0.000       0.000    
        0.000       0.000       0.000       0.000       0.000       0.000       0.000       0.000       0.000       0.000    
        0.000       0.000       0.000       0.000       0.000       0.000      5.2000E-02  5.2000E-02  5.2000E-02  5.2000E-02
       5.2000E-02  5.2000E-02  5.2000E-02  5.2000E-02  5.2000E-02  5.2000E-02  5.2000E-02  6.5000E-02  6.5000E-02  6.5000E-02
       6.5000E-02  6.5000E-02  6.5000E-02  6.5000E-02  0.1300      0.1300      0.1300      6.5000E-02  6.5000E-02  6.5000E-02
       6.5000E-02  6.5000E-02  6.5000E-02  6.5000E-02  6.5000E-02  6.5000E-02   0.000       0.000       0.000       0.000    
        0.000    
  12    0.000       0.000       0.000       0.000       0.000       0.000       0.000       0.000       0.000       0.000    
        0.000       0.000       0.000       0.000       0.000       0.000       0.000       0.000       0.000       0.000    
        0.000       0.000       0.000       0.000       0.000       0.000       0.000       0.000       0.000       0.000    
        0.000       0.000       0.000       0.000       0.000       0.000       0.000       0.000       0.000       0.000    
        0.000       0.000       0.000       0.000       0.000       0.000      5.2000E-02  5.2000E-02  5.2000E-02  6.5000E-02
       6.5000E-02  6.5000E-02  6.5000E-02  6.5000E-02  6.5000E-02  6.5000E-02  6.5000E-02  6.5000E-02  6.5000E-02  6.5000E-02
       6.5000E-02  6.5000E-02  6.5000E-02  6.5000E-02  0.1300      0.1300      0.1300      6.5000E-02  6.5000E-02  6.5000E-02
       6.5000E-02  6.5000E-02  6.5000E-02  6.5000E-02  6.5000E-02  6.5000E-02  6.5000E-02   0.000       0.000       0.000    
        0.000    
  13    0.000       0.000       0.000       0.000       0.000       0.000       0.000       0.000       0.000       0.000    
        0.000       0.000       0.000       0.000       0.000       0.000       0.000       0.000       0.000       0.000    
        0.000       0.000       0.000       0.000       0.000       0.000       0.000       0.000       0.000       0.000    
        0.000       0.000       0.000       0.000       0.000       0.000       0.000       0.000       0.000       0.000    
        0.000       0.000       0.000       0.000      5.2000E-02  5.2000E-02  5.2000E-02  5.2000E-02  5.2000E-02  6.5000E-02
       6.5000E-02  6.5000E-02  6.5000E-02  6.5000E-02  6.5000E-02  6.5000E-02  6.5000E-02  6.5000E-02  6.5000E-02  6.5000E-02
       6.5000E-02  6.5000E-02  6.5000E-02  6.5000E-02  0.1300      0.1300      0.1300      6.5000E-02  6.5000E-02  6.5000E-02
       6.5000E-02  6.5000E-02  6.5000E-02  6.5000E-02  6.5000E-02  6.5000E-02  6.5000E-02  6.5000E-02   0.000       0.000    
        0.000    
  14    0.000       0.000       0.000       0.000       0.000       0.000       0.000       0.000       0.000       0.000    
        0.000       0.000       0.000       0.000       0.000       0.000       0.000       0.000       0.000       0.000    
        0.000       0.000       0.000       0.000       0.000       0.000       0.000       0.000       0.000       0.000    
        0.000       0.000       0.000       0.000       0.000       0.000       0.000       0.000       0.000       0.000    
        0.000      5.2000E-02  5.2000E-02  5.2000E-02  5.2000E-02  5.2000E-02  5.2000E-02  5.2000E-02  5.2000E-02  6.5000E-02
       6.5000E-02  6.5000E-02  6.5000E-02  6.5000E-02  6.5000E-02  6.5000E-02  6.5000E-02  6.5000E-02  6.5000E-02  6.5000E-02
       6.5000E-02  6.5000E-02  6.5000E-02  6.5000E-02  0.1300      0.1300      0.1300      6.5000E-02  6.5000E-02  6.5000E-02
       6.5000E-02  6.5000E-02  6.5000E-02  6.5000E-02  6.5000E-02  6.5000E-02  6.5000E-02  6.5000E-02  6.5000E-02   0.000    
        0.000    
  15    0.000       0.000       0.000       0.000       0.000       0.000       0.000       0.000       0.000       0.000    
        0.000       0.000       0.000       0.000       0.000       0.000       0.000       0.000       0.000       0.000    
        0.000       0.000       0.000       0.000       0.000       0.000       0.000       0.000       0.000       0.000    
        0.000       0.000       0.000       0.000       0.000       0.000       0.000       0.000       0.000       0.000    
       2.6000E-02  2.6000E-02  5.2000E-02  5.2000E-02  5.2000E-02  5.2000E-02  5.2000E-02  5.2000E-02  5.2000E-02  5.2000E-02
       5.2000E-02  6.5000E-02  6.5000E-02  6.5000E-02  6.5000E-02  6.5000E-02  6.5000E-02  6.5000E-02  6.5000E-02  6.5000E-02
       6.5000E-02  6.5000E-02  6.5000E-02  6.5000E-02  0.1300      0.1300      0.1300      0.1300      6.5000E-02  6.5000E-02
       6.5000E-02  6.5000E-02  6.5000E-02  6.5000E-02  6.5000E-02  6.5000E-02  6.5000E-02  6.5000E-02  6.5000E-02  6.5000E-02
        0.000    
  16    0.000       0.000       0.000       0.000       0.000       0.000       0.000       0.000       0.000       0.000    
        0.000       0.000       0.000       0.000       0.000       0.000       0.000       0.000       0.000       0.000    
        0.000       0.000       0.000       0.000       0.000       0.000       0.000       0.000       0.000       0.000    
        0.000       0.000       0.000       0.000       0.000       0.000       0.000       0.000       0.000      2.6000E-02
       2.6000E-02  2.6000E-02  5.2000E-02  5.2000E-02  5.2000E-02  5.2000E-02  5.2000E-02  5.2000E-02  5.2000E-02  5.2000E-02
       5.2000E-02  5.2000E-02  6.5000E-02  6.5000E-02  6.5000E-02  6.5000E-02  6.5000E-02  6.5000E-02  6.5000E-02  6.5000E-02
       6.5000E-02  6.5000E-02  6.5000E-02  6.5000E-02  0.1300      0.1300      0.1300      0.1300      0.1300      6.5000E-02
       6.5000E-02  6.5000E-02  6.5000E-02  6.5000E-02  6.5000E-02  6.5000E-02  6.5000E-02  6.5000E-02  6.5000E-02  6.5000E-02
        0.000    
  17    0.000       0.000       0.000       0.000       0.000       0.000       0.000       0.000       0.000       0.000    
        0.000       0.000       0.000       0.000       0.000       0.000       0.000       0.000       0.000       0.000    
        0.000       0.000       0.000       0.000       0.000       0.000       0.000       0.000       0.000       0.000    
        0.000       0.000       0.000       0.000       0.000       0.000       0.000       0.000       0.000      2.6000E-02
       2.6000E-02  2.6000E-02  2.6000E-02  5.2000E-02  5.2000E-02  5.2000E-02  5.2000E-02  5.2000E-02  5.2000E-02  5.2000E-02
       5.2000E-02  5.2000E-02  6.5000E-02  6.5000E-02  6.5000E-02  6.5000E-02  6.5000E-02  6.5000E-02  6.5000E-02  6.5000E-02
       6.5000E-02  6.5000E-02  6.5000E-02  6.5000E-02  0.1300      0.1300      0.1300      0.1300      0.1300      0.1300    
       0.1300      0.1300      0.1300      0.1300      0.1300      0.1300      6.5000E-02  6.5000E-02  6.5000E-02  6.5000E-02
        0.000    
  18    0.000       0.000       0.000       0.000       0.000       0.000       0.000       0.000       0.000       0.000    
        0.000       0.000       0.000       0.000       0.000       0.000       0.000       0.000       0.000       0.000    
        0.000       0.000       0.000       0.000       0.000       0.000       0.000       0.000       0.000       0.000    
        0.000       0.000       0.000       0.000       0.000       0.000       0.000       0.000       0.000      2.6000E-02
       2.6000E-02  2.6000E-02  2.6000E-02  5.2000E-02  5.2000E-02  5.2000E-02  5.2000E-02  5.2000E-02  5.2000E-02  5.2000E-02
       5.2000E-02  5.2000E-02  6.5000E-02  6.5000E-02  6.5000E-02  6.5000E-02  6.5000E-02  6.5000E-02  6.5000E-02  6.5000E-02
       6.5000E-02  6.5000E-02  6.5000E-02  6.5000E-02  0.1300      0.1300      0.1300      0.1300      0.1300      0.1300    
       0.1300      0.1300      0.1300      0.1300      0.1300      0.1300      0.1300      6.5000E-02  6.5000E-02  6.5000E-02
        0.000    
  19    0.000       0.000       0.000       0.000       0.000       0.000       0.000       0.000       0.000       0.000    
        0.000       0.000       0.000       0.000       0.000       0.000       0.000       0.000       0.000       0.000    
        0.000       0.000       0.000       0.000       0.000       0.000       0.000       0.000       0.000       0.000    
        0.000       0.000       0.000       0.000      2.6000E-02  2.6000E-02  2.6000E-02  2.6000E-02  2.6000E-02  2.6000E-02
       2.6000E-02  2.6000E-02  5.2000E-02  5.2000E-02  5.2000E-02  5.2000E-02  5.2000E-02  5.2000E-02  5.2000E-02  5.2000E-02
       5.2000E-02  5.2000E-02  6.5000E-02  6.5000E-02  6.5000E-02  6.5000E-02  6.5000E-02  6.5000E-02  6.5000E-02  6.5000E-02
       6.5000E-02  6.5000E-02  6.5000E-02  6.5000E-02  0.1300      0.1300      0.1300      0.1300      0.1300      0.1300    
       0.1300      0.1300      0.1300      0.1300      0.1300      0.1300      0.1300      6.5000E-02  6.5000E-02  6.5000E-02
       3.9000E-02
  20    0.000       0.000       0.000       0.000       0.000       0.000       0.000       0.000       0.000       0.000    
        0.000       0.000       0.000       0.000       0.000       0.000       0.000       0.000       0.000       0.000    
        0.000       0.000       0.000       0.000       0.000       0.000       0.000       0.000       0.000       0.000    
        0.000       0.000      2.6000E-02  2.6000E-02  2.6000E-02  2.6000E-02  2.6000E-02  2.6000E-02  2.6000E-02  2.6000E-02
       2.6000E-02  5.2000E-02  5.2000E-02  5.2000E-02  5.2000E-02  5.2000E-02  5.2000E-02  5.2000E-02  5.2000E-02  5.2000E-02
       5.2000E-02  5.2000E-02  6.5000E-02  6.5000E-02  6.5000E-02  6.5000E-02  6.5000E-02  6.5000E-02  6.5000E-02  6.5000E-02
       6.5000E-02  6.5000E-02  6.5000E-02  6.5000E-02  0.1300      0.1300      0.1300      0.1300      0.1300      0.1300    
       0.1300      0.1300      0.1300      0.1300      0.1300      0.1300      0.1300      6.5000E-02  6.5000E-02  6.5000E-02
       3.9000E-02
  21    0.000       0.000       0.000       0.000       0.000       0.000       0.000       0.000       0.000       0.000    
        0.000       0.000       0.000       0.000       0.000       0.000       0.000       0.000       0.000       0.000    
        0.000       0.000       0.000       0.000       0.000       0.000       0.000       0.000       0.000      2.6000E-02
       2.6000E-02  2.6000E-02  2.6000E-02  2.6000E-02  2.6000E-02  2.6000E-02  2.6000E-02  2.6000E-02  2.6000E-02  5.2000E-02
       5.2000E-02  5.2000E-02  5.2000E-02  5.2000E-02  5.2000E-02  5.2000E-02  5.2000E-02  5.2000E-02  5.2000E-02  5.2000E-02
       5.2000E-02  5.2000E-02  6.5000E-02  6.5000E-02  0.1300      6.5000E-02  6.5000E-02  6.5000E-02  6.5000E-02  6.5000E-02
       6.5000E-02  6.5000E-02  6.5000E-02  6.5000E-02  6.5000E-02  0.1300      0.1300      0.1300      0.1300      0.1300    
       0.1300      0.1300      0.1300      0.1300      0.1300      0.1300      0.1300      6.5000E-02  6.5000E-02  6.5000E-02
       3.9000E-02
  22    0.000       0.000       0.000       0.000       0.000       0.000       0.000       0.000       0.000       0.000    
        0.000       0.000       0.000       0.000       0.000       0.000       0.000       0.000       0.000       0.000    
        0.000       0.000       0.000       0.000       0.000       0.000      2.6000E-02  2.6000E-02  2.6000E-02  2.6000E-02
       2.6000E-02  2.6000E-02  2.6000E-02  2.6000E-02  2.6000E-02  2.6000E-02  2.6000E-02  2.6000E-02  5.2000E-02  5.2000E-02
       5.2000E-02  5.2000E-02  5.2000E-02  5.2000E-02  5.2000E-02  5.2000E-02  5.2000E-02  5.2000E-02  5.2000E-02  5.2000E-02
       5.2000E-02  6.5000E-02  6.5000E-02  6.5000E-02  0.1300      6.5000E-02  6.5000E-02  6.5000E-02  6.5000E-02  6.5000E-02
       6.5000E-02  6.5000E-02  6.5000E-02  6.5000E-02  6.5000E-02  6.5000E-02  0.1300      0.1300      0.1300      0.1300    
       0.1300      0.1300      0.1300      0.1300      0.1300      0.1300      0.1300      6.5000E-02  6.5000E-02  6.5000E-02
       3.9000E-02
  23    0.000       0.000       0.000       0.000       0.000       0.000       0.000       0.000       0.000       0.000    
        0.000       0.000       0.000       0.000       0.000       0.000       0.000       0.000       0.000       0.000    
        0.000       0.000       0.000       0.000      2.6000E-02  2.6000E-02  2.6000E-02  2.6000E-02  2.6000E-02  2.6000E-02
       2.6000E-02  2.6000E-02  2.6000E-02  2.6000E-02  2.6000E-02  5.2000E-02  5.2000E-02  5.2000E-02  5.2000E-02  5.2000E-02
       5.2000E-02  5.2000E-02  5.2000E-02  5.2000E-02  5.2000E-02  5.2000E-02  5.2000E-02  5.2000E-02  6.5000E-02  6.5000E-02
       6.5000E-02  6.5000E-02  6.5000E-02  6.5000E-02  0.1300      6.5000E-02  6.5000E-02  6.5000E-02  6.5000E-02  6.5000E-02
       6.5000E-02  6.5000E-02  6.5000E-02  6.5000E-02  6.5000E-02  6.5000E-02  6.5000E-02  6.5000E-02  0.1300      0.1300    
       0.1300      0.1300      0.1300      0.1300      0.1300      0.1300      0.1300      6.5000E-02  6.5000E-02  6.5000E-02
       3.9000E-02
  24    0.000       0.000       0.000       0.000       0.000       0.000       0.000       0.000       0.000       0.000    
        0.000       0.000       0.000       0.000       0.000       0.000       0.000       0.000       0.000       0.000    
        0.000       0.000      2.6000E-02  2.6000E-02  2.6000E-02  2.6000E-02  2.6000E-02  2.6000E-02  2.6000E-02  5.2000E-02
       5.2000E-02  5.2000E-02  5.2000E-02  5.2000E-02  5.2000E-02  5.2000E-02  5.2000E-02  5.2000E-02  5.2000E-02  5.2000E-02
       5.2000E-02  5.2000E-02  5.2000E-02  5.2000E-02  6.5000E-02  6.5000E-02  6.5000E-02  6.5000E-02  6.5000E-02  6.5000E-02
       6.5000E-02  6.5000E-02  6.5000E-02  6.5000E-02  0.1300      6.5000E-02  6.5000E-02  6.5000E-02  6.5000E-02  6.5000E-02
       6.5000E-02  6.5000E-02  6.5000E-02  6.5000E-02  6.5000E-02  6.5000E-02  6.5000E-02  6.5000E-02  6.5000E-02  0.1300    
       0.1300      0.1300      0.1300      0.1300      0.1300      0.1300      6.5000E-02  6.5000E-02  6.5000E-02  6.5000E-02
       3.9000E-02
  25    0.000       0.000       0.000       0.000       0.000       0.000       0.000       0.000       0.000       0.000    
        0.000       0.000       0.000       0.000       0.000       0.000       0.000       0.000       0.000       0.000    
       2.6000E-02  2.6000E-02  2.6000E-02  2.6000E-02  2.6000E-02  2.6000E-02  2.6000E-02  5.2000E-02  5.2000E-02  5.2000E-02
       5.2000E-02  5.2000E-02  5.2000E-02  5.2000E-02  5.2000E-02  5.2000E-02  5.2000E-02  5.2000E-02  5.2000E-02  5.2000E-02
       5.2000E-02  5.2000E-02  5.2000E-02  6.5000E-02  6.5000E-02  6.5000E-02  6.5000E-02  6.5000E-02  6.5000E-02  6.5000E-02
       6.5000E-02  6.5000E-02  6.5000E-02  6.5000E-02  0.1300      0.1300      6.5000E-02  6.5000E-02  6.5000E-02  6.5000E-02
       6.5000E-02  6.5000E-02  6.5000E-02  6.5000E-02  6.5000E-02  6.5000E-02  6.5000E-02  6.5000E-02  6.5000E-02  0.1300    
       0.1300      0.1300      0.1300      0.1300      0.1300      6.5000E-02  6.5000E-02  6.5000E-02  6.5000E-02  6.5000E-02
        0.000    
  26    0.000       0.000       0.000       0.000       0.000       0.000       0.000       0.000       0.000       0.000    
        0.000       0.000       0.000       0.000       0.000       0.000       0.000       0.000      2.6000E-02  2.6000E-02
       2.6000E-02  2.6000E-02  2.6000E-02  2.6000E-02  2.6000E-02  2.6000E-02  2.6000E-02  5.2000E-02  5.2000E-02  5.2000E-02
       5.2000E-02  5.2000E-02  5.2000E-02  5.2000E-02  5.2000E-02  5.2000E-02  5.2000E-02  5.2000E-02  5.2000E-02  5.2000E-02
       5.2000E-02  5.2000E-02  6.5000E-02  6.5000E-02  6.5000E-02  6.5000E-02  6.5000E-02  6.5000E-02  6.5000E-02  6.5000E-02
       6.5000E-02  6.5000E-02  6.5000E-02  6.5000E-02  0.1300      0.1300      6.5000E-02  6.5000E-02  6.5000E-02  6.5000E-02
       6.5000E-02  6.5000E-02  6.5000E-02  6.5000E-02  6.5000E-02  6.5000E-02  6.5000E-02  6.5000E-02  6.5000E-02  6.5000E-02
       0.1300      0.1300      0.1300      0.1300      0.1300      6.5000E-02  6.5000E-02  6.5000E-02  6.5000E-02   0.000    
        0.000    
  27    0.000       0.000       0.000       0.000       0.000       0.000       0.000       0.000       0.000       0.000    
        0.000       0.000       0.000       0.000       0.000       0.000       0.000      2.6000E-02  2.6000E-02  2.6000E-02
       2.6000E-02  2.6000E-02  5.2000E-02  5.2000E-02  5.2000E-02  5.2000E-02  5.2000E-02  5.2000E-02  5.2000E-02  5.2000E-02
       5.2000E-02  5.2000E-02  5.2000E-02  5.2000E-02  5.2000E-02  5.2000E-02  5.2000E-02  5.2000E-02  5.2000E-02  5.2000E-02
       5.2000E-02  6.5000E-02  6.5000E-02  6.5000E-02  6.5000E-02  6.5000E-02  6.5000E-02  6.5000E-02  6.5000E-02  6.5000E-02
       6.5000E-02  6.5000E-02  6.5000E-02  6.5000E-02  6.5000E-02  0.1300      6.5000E-02  6.5000E-02  6.5000E-02  6.5000E-02
       6.5000E-02  6.5000E-02  6.5000E-02  6.5000E-02  6.5000E-02  6.5000E-02  6.5000E-02  6.5000E-02  6.5000E-02  6.5000E-02
       6.5000E-02  0.1300      0.1300      0.1300      0.1300      6.5000E-02   0.000       0.000       0.000       0.000    
        0.000    
  28    0.000       0.000       0.000       0.000       0.000       0.000       0.000       0.000       0.000       0.000    
        0.000       0.000       0.000       0.000       0.000       0.000      2.6000E-02  2.6000E-02  2.6000E-02  2.6000E-02
       2.6000E-02  5.2000E-02  5.2000E-02  5.2000E-02  5.2000E-02  5.2000E-02  5.2000E-02  5.2000E-02  5.2000E-02  0.1300    
       0.1300      0.1300      0.1300      5.2000E-02  5.2000E-02  5.2000E-02  5.2000E-02  5.2000E-02  5.2000E-02  6.5000E-02
       6.5000E-02  6.5000E-02  6.5000E-02  6.5000E-02  6.5000E-02  6.5000E-02  6.5000E-02  6.5000E-02  6.5000E-02  6.5000E-02
       6.5000E-02  6.5000E-02  6.5000E-02  6.5000E-02  6.5000E-02  0.1300      0.1300      6.5000E-02  6.5000E-02  6.5000E-02
       6.5000E-02  6.5000E-02  6.5000E-02  6.5000E-02  6.5000E-02  6.5000E-02  6.5000E-02  6.5000E-02  6.5000E-02  6.5000E-02
       6.5000E-02  0.1300      0.1300      0.1300      0.1300      6.5000E-02   0.000       0.000       0.000       0.000    
        0.000    
  29    0.000       0.000       0.000       0.000       0.000       0.000       0.000       0.000       0.000       0.000    
        0.000      2.6000E-02  2.6000E-02  5.2000E-02  5.2000E-02  5.2000E-02  5.2000E-02  5.2000E-02  5.2000E-02  5.2000E-02
       5.2000E-02  5.2000E-02  5.2000E-02  5.2000E-02  5.2000E-02  5.2000E-02  5.2000E-02  5.2000E-02  5.2000E-02  0.1300    
       0.1300      0.1300      0.1300      0.1300      0.1300      5.2000E-02  5.2000E-02  5.2000E-02  5.2000E-02  6.5000E-02
       6.5000E-02  0.1300      0.1300      0.3900      0.3900      0.3900      0.3900      6.5000E-02  6.5000E-02  6.5000E-02
       6.5000E-02  6.5000E-02  6.5000E-02  6.5000E-02  6.5000E-02  0.1300      0.1300      6.5000E-02  6.5000E-02  6.5000E-02
       6.5000E-02  6.5000E-02  6.5000E-02  6.5000E-02  6.5000E-02  6.5000E-02  6.5000E-02  6.5000E-02  6.5000E-02  6.5000E-02
       6.5000E-02  0.1300      0.1300      0.1300      0.1300      6.5000E-02   0.000       0.000       0.000       0.000    
        0.000    
  30    0.000       0.000       0.000       0.000       0.000       0.000       0.000       0.000       0.000       0.000    
       2.6000E-02  2.6000E-02  5.2000E-02  5.2000E-02  5.2000E-02  5.2000E-02  0.1300      0.1300      0.1300      0.1300    
       0.1300      0.1300      0.1300      0.1300      0.1300      0.1300      0.1300      0.1300      0.1300      0.1300    
       0.1300      0.1300      0.1300      0.1300      0.1300      0.1300      0.1300      0.1300      0.1300      0.1300    
       0.1300      0.3900      0.3900      0.3900      0.3900      0.3900      0.3900      0.3900      0.1300      6.5000E-02
       6.5000E-02  6.5000E-02  6.5000E-02  6.5000E-02  6.5000E-02  0.1300      0.1300      6.5000E-02  6.5000E-02  6.5000E-02
       6.5000E-02  6.5000E-02  6.5000E-02  6.5000E-02  6.5000E-02  6.5000E-02  6.5000E-02  6.5000E-02  6.5000E-02  6.5000E-02
       6.5000E-02  0.1300      0.1300      0.3900      0.1300      6.5000E-02   0.000       0.000       0.000       0.000    
        0.000    
  31    0.000       0.000       0.000       0.000       0.000       0.000       0.000       0.000       0.000      2.6000E-02
       2.6000E-02  2.6000E-02  5.2000E-02  5.2000E-02  5.2000E-02  5.2000E-02  0.1300      0.1300      0.1300      0.1300    
       0.1300      0.1300      0.1300      0.1300      0.1300      0.1300      0.1300      0.3900      0.3900      0.3900    
       0.3900      0.3900      0.3900      0.3900      0.3900      0.3900      0.3900      0.3900      0.3900      0.3900    
       0.3900      0.3900      0.3900      0.3900      0.3900      0.3900      0.3900      0.3900      0.1300      0.3900    
       0.1300      6.5000E-02  6.5000E-02  6.5000E-02  6.5000E-02  0.1300      0.1300      6.5000E-02  6.5000E-02  6.5000E-02
       6.5000E-02  6.5000E-02  6.5000E-02  6.5000E-02  6.5000E-02  6.5000E-02  6.5000E-02  6.5000E-02  6.5000E-02  6.5000E-02
       6.5000E-02  0.1300      0.1300      0.3900      0.1300      6.5000E-02   0.000       0.000       0.000       0.000    
        0.000    
  32    0.000       0.000       0.000       0.000       0.000       0.000       0.000       0.000      2.6000E-02  2.6000E-02
       2.6000E-02  2.6000E-02  5.2000E-02  5.2000E-02  5.2000E-02  5.2000E-02  5.2000E-02  5.2000E-02  5.2000E-02  5.2000E-02
       5.2000E-02  5.2000E-02  5.2000E-02  5.2000E-02  5.2000E-02  5.2000E-02  6.5000E-02  6.5000E-02  6.5000E-02  6.5000E-02
       6.5000E-02  6.5000E-02  0.1300      0.1300      0.3900      0.3900      0.3900      0.3900      0.3900      0.3900    
       0.3900      0.3900      0.1300      0.1300      0.1300      0.1300      0.1300      0.3900      0.1300      0.3900    
       0.3900      0.1300      6.5000E-02  6.5000E-02  6.5000E-02  0.1300      0.1300      6.5000E-02  6.5000E-02  6.5000E-02
       6.5000E-02  6.5000E-02  6.5000E-02  6.5000E-02  6.5000E-02  6.5000E-02  6.5000E-02  6.5000E-02  6.5000E-02  6.5000E-02
       6.5000E-02  0.1300      0.1300      0.3900      0.1300      6.5000E-02   0.000       0.000       0.000       0.000    
        0.000    
  33    0.000       0.000       0.000       0.000       0.000       0.000       0.000      2.6000E-02  2.6000E-02  2.6000E-02
       2.6000E-02  2.6000E-02  5.2000E-02  5.2000E-02  5.2000E-02  5.2000E-02  5.2000E-02  5.2000E-02  5.2000E-02  5.2000E-02
       5.2000E-02  5.2000E-02  5.2000E-02  5.2000E-02  5.2000E-02  6.5000E-02  6.5000E-02  6.5000E-02  6.5000E-02  6.5000E-02
       6.5000E-02  6.5000E-02  0.1300      0.3900      0.3900      0.3900      0.3900      0.3900      0.3900      0.3900    
       0.3900      6.5000E-02  6.5000E-02  6.5000E-02  6.5000E-02  6.5000E-02  0.1300      0.1300      0.3900      0.3900    
       0.3900      0.3900      0.1300      0.1300      0.1300      0.1300      0.1300      0.1300      0.1300      0.1300    
       6.5000E-02  6.5000E-02  6.5000E-02  6.5000E-02  6.5000E-02  6.5000E-02  6.5000E-02  6.5000E-02  6.5000E-02  6.5000E-02
       6.5000E-02  0.1300      0.1300      0.3900      0.1300      6.5000E-02   0.000       0.000       0.000       0.000    
        0.000    
  34    0.000       0.000       0.000       0.000       0.000       0.000      2.6000E-02  2.6000E-02  2.6000E-02  2.6000E-02
       2.6000E-02  5.2000E-02  5.2000E-02  5.2000E-02  5.2000E-02  5.2000E-02  5.2000E-02  5.2000E-02  5.2000E-02  5.2000E-02
       5.2000E-02  5.2000E-02  6.5000E-02  6.5000E-02  6.5000E-02  6.5000E-02  6.5000E-02  6.5000E-02  6.5000E-02  6.5000E-02
       6.5000E-02  6.5000E-02  0.3900      0.3900      0.1300      0.1300      0.3900      0.3900      0.3900      0.3900    
       0.3900      6.5000E-02  6.5000E-02  6.5000E-02  6.5000E-02  6.5000E-02  0.1300      0.1300      0.3900      0.3900    
       0.3900      0.3900      0.3900      0.3900      0.3900      0.3900      0.3900      0.3900      0.3900      0.3900    
       6.5000E-02  6.5000E-02  6.5000E-02  6.5000E-02  6.5000E-02  6.5000E-02  6.5000E-02  6.5000E-02  6.5000E-02  6.5000E-02
       6.5000E-02  0.1300      0.1300      0.3900      0.1300      6.5000E-02   0.000       0.000       0.000       0.000    
        0.000    
  35    0.000       0.000       0.000       0.000       0.000      2.6000E-02  2.6000E-02  2.6000E-02  2.6000E-02  2.6000E-02
       2.6000E-02  5.2000E-02  5.2000E-02  5.2000E-02  5.2000E-02  5.2000E-02  5.2000E-02  5.2000E-02  6.5000E-02  6.5000E-02
       6.5000E-02  6.5000E-02  6.5000E-02  6.5000E-02  6.5000E-02  0.3900      0.3900      6.5000E-02  6.5000E-02  6.5000E-02
       6.5000E-02  0.3900      0.3900      0.1300      0.1300      0.1300      0.3900      0.3900      0.3900      0.3900    
       0.3900      6.5000E-02  6.5000E-02  6.5000E-02  6.5000E-02  6.5000E-02  0.1300      0.3900      0.3900      0.3900    
       0.3900      0.3900      0.3900      0.3900      0.3900      0.3900      0.3900      0.3900      0.3900      0.3900    
       6.5000E-02  6.5000E-02  6.5000E-02  6.5000E-02  6.5000E-02  6.5000E-02  6.5000E-02  6.5000E-02  6.5000E-02  6.5000E-02
       6.5000E-02  0.1300      0.1300      0.3900      0.1300      6.5000E-02   0.000       0.000       0.000       0.000    
        0.000    
  36    0.000       0.000       0.000       0.000       0.000      2.6000E-02  2.6000E-02  2.6000E-02  2.6000E-02  2.6000E-02
       5.2000E-02  5.2000E-02  5.2000E-02  5.2000E-02  0.1300      0.1300      0.1300      0.1300      0.1300      0.1300    
       0.1300      0.1300      0.1300      0.1300      0.3900      0.3900      0.3900      0.3900      0.3900      0.3900    
       0.3900      0.3900      0.1300      0.1300      0.1300      0.1300      0.3900      0.3900      0.3900      0.3900    
       0.3900      6.5000E-02  6.5000E-02  6.5000E-02  6.5000E-02  6.5000E-02  0.1300      0.3900      0.3900      6.5000E-02
       6.5000E-02  0.3900      0.3900      0.3900      0.3900      0.3900      0.3900      0.3900      0.3900      0.3900    
       0.1300      0.1300      0.1300      6.5000E-02  6.5000E-02  6.5000E-02  6.5000E-02  6.5000E-02  6.5000E-02  6.5000E-02
       6.5000E-02  0.1300      0.1300      0.1300      0.1300      6.5000E-02   0.000       0.000       0.000       0.000    
        0.000    
  37    0.000       0.000       0.000       0.000       0.000      2.6000E-02  2.6000E-02  2.6000E-02  2.6000E-02  5.2000E-02
       5.2000E-02  5.2000E-02  5.2000E-02  0.1300      0.1300      0.1300      0.1300      0.1300      0.1300      0.1300    
       0.1300      0.1300      0.3900      0.3900      0.3900      0.1300      0.1300      0.1300      0.1300      0.1300    
       0.1300      0.1300      0.1300      0.1300      0.1300      0.1300      0.3900      0.3900      0.3900      0.3900    
       6.5000E-02  6.5000E-02  6.5000E-02  6.5000E-02  6.5000E-02  6.5000E-02  0.3900      0.3900      6.5000E-02  6.5000E-02
       6.5000E-02  0.1300      0.1300      0.1300      0.1300      0.3900      0.3900      0.3900      0.3900      0.3900    
       0.3900      0.1300      0.1300      0.1300      6.5000E-02  6.5000E-02  0.1300      0.1300      6.5000E-02  6.5000E-02
       6.5000E-02  0.1300      0.1300      6.5000E-02  6.5000E-02  5.2000E-02   0.000       0.000       0.000       0.000    
        0.000    
  38    0.000       0.000       0.000       0.000       0.000      2.6000E-02  2.6000E-02  2.6000E-02  2.6000E-02  5.2000E-02
       5.2000E-02  5.2000E-02  5.2000E-02  0.1300      0.1300      0.1300      0.3900      0.3900      0.3900      0.3900    
       0.3900      0.3900      0.3900      0.3900      0.1300      0.1300      0.1300      0.1300      0.1300      0.1300    
       0.1300      0.1300      0.1300      0.1300      0.1300      0.1300      0.3900      0.3900      0.3900      0.1300    
       6.5000E-02  6.5000E-02  6.5000E-02  6.5000E-02  6.5000E-02  6.5000E-02  0.3900      0.3900      6.5000E-02  6.5000E-02
       6.5000E-02  6.5000E-02  0.1300      0.1300      0.1300      0.1300      0.1300      0.3900      0.3900      0.3900    
       0.3900      0.3900      0.3900      0.3900      0.1300      0.1300      0.1300      0.1300      0.1300      6.5000E-02
       6.5000E-02  0.1300      0.1300      6.5000E-02  6.5000E-02  5.2000E-02  2.6000E-02   0.000       0.000       0.000    
        0.000    
  39    0.000       0.000       0.000       0.000       0.000      2.6000E-02  2.6000E-02  2.6000E-02  5.2000E-02  5.2000E-02
       5.2000E-02  5.2000E-02  0.1300      0.1300      0.3900      0.3900      0.3900      0.1300      0.1300      0.1300    
       0.1300      0.1300      0.1300      0.1300      0.1300      0.1300      0.1300      0.1300      0.1300      0.1300    
       0.1300      0.1300      0.1300      0.1300      0.1300      0.1300      0.3900      0.3900      0.3900      0.1300    
       6.5000E-02  6.5000E-02  6.5000E-02  6.5000E-02  6.5000E-02  6.5000E-02  0.3900      0.3900      6.5000E-02  6.5000E-02
       6.5000E-02  6.5000E-02  0.1300      0.1300      0.1300      0.1300      0.1300      0.1300      0.1300      0.1300    
       0.3900      0.3900      0.3900      0.3900      0.3900      0.3900      0.3900      0.1300      0.1300      0.1300    
       0.1300      0.1300      0.1300      6.5000E-02  6.5000E-02  5.2000E-02  2.6000E-02   0.000       0.000       0.000    
        0.000    
  40    0.000       0.000       0.000       0.000      2.6000E-02  2.6000E-02  2.6000E-02  5.2000E-02  5.2000E-02  5.2000E-02
       5.2000E-02  0.3900      0.3900      0.3900      0.3900      0.3900      0.1300      0.1300      0.1300      0.1300    
       0.1300      0.1300      0.1300      0.1300      0.1300      0.1300      0.1300      0.1300      0.1300      0.1300    
       0.1300      0.1300      0.1300      0.1300      0.1300      0.1300      0.3900      0.3900      0.3900      0.1300    
       6.5000E-02  6.5000E-02  6.5000E-02  6.5000E-02  6.5000E-02  6.5000E-02  0.3900      0.3900      6.5000E-02  6.5000E-02
       6.5000E-02  6.5000E-02  6.5000E-02  5.2000E-02  5.2000E-02  5.2000E-02  5.2000E-02  5.2000E-02  5.2000E-02  6.5000E-02
       0.3900      0.3900      0.3900      0.3900      0.3900      0.3900      0.3900      0.3900      0.3900      0.1300    
       0.1300      0.1300      0.1300      6.5000E-02  6.5000E-02  5.2000E-02  2.6000E-02  2.6000E-02   0.000       0.000    
        0.000    
  41    0.000       0.000       0.000       0.000      2.6000E-02  2.6000E-02  5.2000E-02  5.2000E-02  5.2000E-02  5.2000E-02
       5.2000E-02  0.3900      0.3900      0.3900      0.3900      0.3900      0.1300      6.5000E-02  6.5000E-02  6.5000E-02
       6.5000E-02  6.5000E-02  6.5000E-02  6.5000E-02  6.5000E-02  6.5000E-02  6.5000E-02  6.5000E-02  6.5000E-02  6.5000E-02
       6.5000E-02  6.5000E-02  0.1300      0.1300      0.1300      0.1300      0.3900      0.3900      0.3900      6.5000E-02
       5.2000E-02  5.2000E-02  5.2000E-02  5.2000E-02  5.2000E-02  5.2000E-02  0.3900      0.3900      6.5000E-02  6.5000E-02
       6.5000E-02  6.5000E-02  6.5000E-02  5.2000E-02  5.2000E-02  5.2000E-02  5.2000E-02  5.2000E-02  5.2000E-02  6.5000E-02
       6.5000E-02  0.3900      0.3900      0.3900      0.1300      0.1300      0.3900      0.3900      0.3900      0.3900    
       0.3900      0.3900      0.3900      0.1300      6.5000E-02  5.2000E-02  2.6000E-02  2.6000E-02  2.6000E-02   0.000    
        0.000    
  42    0.000       0.000       0.000      2.6000E-02  2.6000E-02  2.6000E-02  5.2000E-02  5.2000E-02  5.2000E-02  0.3900    
       0.3900      0.3900      0.3900      0.1300      5.2000E-02  5.2000E-02  5.2000E-02  5.2000E-02  5.2000E-02  6.5000E-02
       6.5000E-02  6.5000E-02  6.5000E-02  6.5000E-02  6.5000E-02  6.5000E-02  6.5000E-02  6.5000E-02  6.5000E-02  6.5000E-02
       6.5000E-02  6.5000E-02  0.1300      0.1300      0.1300      0.1300      0.3900      0.3900      0.3900      6.5000E-02
       5.2000E-02  5.2000E-02  5.2000E-02  5.2000E-02  5.2000E-02  5.2000E-02  0.3900      0.3900      6.5000E-02  6.5000E-02
       6.5000E-02  6.5000E-02  6.5000E-02  5.2000E-02  5.2000E-02  5.2000E-02  5.2000E-02  5.2000E-02  5.2000E-02  6.5000E-02
       6.5000E-02  0.3900      0.3900      0.1300      0.1300      6.5000E-02  0.1300      0.1300      0.3900      0.3900    
       0.3900      0.3900      0.3900      0.1300      0.1300      0.1300      0.1300      5.2000E-02  5.2000E-02   0.000    
        0.000    
  43    0.000       0.000       0.000      2.6000E-02  2.6000E-02  5.2000E-02  5.2000E-02  5.2000E-02  5.2000E-02  0.3900    
       0.3900      0.3900      0.1300      5.2000E-02  5.2000E-02  5.2000E-02  5.2000E-02  5.2000E-02  5.2000E-02  5.2000E-02
       6.5000E-02  6.5000E-02  6.5000E-02  6.5000E-02  6.5000E-02  6.5000E-02  6.5000E-02  6.5000E-02  6.5000E-02  6.5000E-02
       6.5000E-02  6.5000E-02  0.1300      0.1300      0.1300      0.1300      0.3900      0.3900      0.3900      6.5000E-02
       5.2000E-02  5.2000E-02  5.2000E-02  5.2000E-02  5.2000E-02  5.2000E-02  0.3900      0.1300      6.5000E-02  6.5000E-02
       2.6000E-02  2.6000E-02  2.6000E-02  2.6000E-02  2.6000E-02  2.6000E-02  2.6000E-02  5.2000E-02  5.2000E-02  6.5000E-02
       6.5000E-02  0.3900      0.3900      0.1300      6.5000E-02  6.5000E-02  6.5000E-02  6.5000E-02  6.5000E-02  6.5000E-02
       6.5000E-02  0.3900      0.3900      0.3900      0.3900      0.3900      0.3900      0.3900      0.3900       1.170    
        0.000    
  44    0.000       0.000      2.6000E-02  2.6000E-02  5.2000E-02  5.2000E-02  5.2000E-02  5.2000E-02  0.1300      0.1300    
       0.1300      0.1300      5.2000E-02  5.2000E-02  5.2000E-02  5.2000E-02  5.2000E-02  5.2000E-02  5.2000E-02  5.2000E-02
       5.2000E-02  6.5000E-02  6.5000E-02  6.5000E-02  6.5000E-02  6.5000E-02  6.5000E-02  6.5000E-02  6.5000E-02  6.5000E-02
       6.5000E-02  6.5000E-02  0.1300      0.1300      0.1300      0.1300      0.3900      0.3900      0.3900      6.5000E-02
       5.2000E-02  5.2000E-02  5.2000E-02  5.2000E-02  5.2000E-02  5.2000E-02  0.3900      0.1300      6.5000E-02  6.5000E-02
       2.6000E-02  2.6000E-02  2.6000E-02  2.6000E-02  2.6000E-02  2.6000E-02  2.6000E-02  5.2000E-02  5.2000E-02  6.5000E-02
       6.5000E-02  0.3900      0.1300      6.5000E-02  6.5000E-02  6.5000E-02  6.5000E-02  6.5000E-02  6.5000E-02  6.5000E-02
       6.5000E-02  0.1300      0.3900      0.3900      0.3900      0.3900      0.3900      0.3900      0.3900       1.170    
        0.000    
  45    0.000      2.6000E-02  2.6000E-02  5.2000E-02  5.2000E-02  5.2000E-02  0.1300      0.1300      0.1300      0.1300    
       0.1300      0.1300      5.2000E-02  5.2000E-02  5.2000E-02  5.2000E-02  5.2000E-02  5.2000E-02  5.2000E-02  5.2000E-02
       5.2000E-02  5.2000E-02  6.5000E-02  6.5000E-02  6.5000E-02  6.5000E-02  6.5000E-02  6.5000E-02  6.5000E-02  6.5000E-02
       6.5000E-02  6.5000E-02  0.1300      0.1300      0.1300      0.1300      0.3900      0.3900      0.3900      0.3900    
       5.2000E-02  5.2000E-02  5.2000E-02  5.2000E-02  5.2000E-02  5.2000E-02  0.3900      0.1300      6.5000E-02  6.5000E-02
       2.6000E-02  2.6000E-02  2.6000E-02  2.6000E-02  2.6000E-02  2.6000E-02  2.6000E-02  5.2000E-02  5.2000E-02  6.5000E-02
       6.5000E-02  0.3900      0.1300      6.5000E-02  6.5000E-02  6.5000E-02  6.5000E-02  6.5000E-02  6.5000E-02  6.5000E-02
       6.5000E-02  0.1300      0.3900      0.3900      0.3900      0.3900      0.3900      0.3900      0.3900       1.170    
        0.000    
  46    0.000      2.6000E-02  5.2000E-02  5.2000E-02  5.2000E-02  0.1300      0.1300      0.1300      0.1300      5.2000E-02
       5.2000E-02  5.2000E-02  5.2000E-02  5.2000E-02  5.2000E-02  5.2000E-02  5.2000E-02  5.2000E-02  5.2000E-02  5.2000E-02
       5.2000E-02  5.2000E-02  6.5000E-02  6.5000E-02  6.5000E-02  6.5000E-02  6.5000E-02  6.5000E-02  6.5000E-02  6.5000E-02
       6.5000E-02  6.5000E-02  0.1300      0.1300      0.1300      0.3900      0.3900      0.3900      0.3900      0.3900    
       5.2000E-02  5.2000E-02  5.2000E-02  5.2000E-02  5.2000E-02  5.2000E-02  0.3900      0.3900      0.1300      6.5000E-02
       2.6000E-02  2.6000E-02  2.6000E-02  2.6000E-02  2.6000E-02  2.6000E-02  2.6000E-02  5.2000E-02  5.2000E-02  6.5000E-02
       6.5000E-02  0.1300      0.1300      6.5000E-02  6.5000E-02  6.5000E-02  6.5000E-02  6.5000E-02  6.5000E-02  6.5000E-02
       6.5000E-02  0.1300      0.1300      0.3900      0.3900      0.3900      0.1300      0.1300       0.000       0.000    
        0.000    
  47   2.6000E-02  2.6000E-02  5.2000E-02  5.2000E-02  5.2000E-02  5.2000E-02  5.2000E-02  5.2000E-02  5.2000E-02  5.2000E-02
       5.2000E-02  5.2000E-02  5.2000E-02  5.2000E-02  5.2000E-02  5.2000E-02  5.2000E-02  5.2000E-02  5.2000E-02  5.2000E-02
       5.2000E-02  5.2000E-02  5.2000E-02  6.5000E-02  6.5000E-02  6.5000E-02  6.5000E-02  6.5000E-02  6.5000E-02  6.5000E-02
       6.5000E-02  6.5000E-02  0.1300      0.1300      0.1300      0.3900      0.3900      0.3900      0.3900      0.3900    
       5.2000E-02  5.2000E-02  5.2000E-02  5.2000E-02  5.2000E-02  5.2000E-02  5.2000E-02  0.3900      0.1300      6.5000E-02
       2.6000E-02  2.6000E-02  2.6000E-02  2.6000E-02  2.6000E-02  2.6000E-02  2.6000E-02  5.2000E-02  5.2000E-02  6.5000E-02
       6.5000E-02  0.1300      0.1300      6.5000E-02  6.5000E-02  6.5000E-02  6.5000E-02  6.5000E-02  6.5000E-02  6.5000E-02
       6.5000E-02  0.1300      0.1300      0.3900      0.3900      0.1300      0.1300      5.2000E-02   0.000       0.000    
        0.000    
  48    0.000      2.6000E-02  2.6000E-02  5.2000E-02  5.2000E-02  5.2000E-02  5.2000E-02  5.2000E-02  5.2000E-02  5.2000E-02
       5.2000E-02  5.2000E-02  5.2000E-02  5.2000E-02  5.2000E-02  5.2000E-02  5.2000E-02  5.2000E-02  5.2000E-02  5.2000E-02
       5.2000E-02  5.2000E-02  5.2000E-02  6.5000E-02  6.5000E-02  6.5000E-02  6.5000E-02  6.5000E-02  6.5000E-02  6.5000E-02
       6.5000E-02  6.5000E-02  0.1300      0.1300      0.1300      0.3900      0.3900      0.3900      0.3900      6.5000E-02
       5.2000E-02  5.2000E-02  5.2000E-02  5.2000E-02  5.2000E-02  5.2000E-02  5.2000E-02  0.3900      0.3900      0.1300    
       2.6000E-02  2.6000E-02  2.6000E-02  2.6000E-02  2.6000E-02  2.6000E-02  2.6000E-02  5.2000E-02  5.2000E-02  6.5000E-02
       6.5000E-02  0.1300      0.1300      6.5000E-02  6.5000E-02  6.5000E-02  6.5000E-02  6.5000E-02  6.5000E-02  6.5000E-02
       6.5000E-02  0.1300      0.3900      0.3900      0.1300      6.5000E-02  5.2000E-02   0.000       0.000       0.000    
        0.000    
  49    0.000       0.000      2.6000E-02  2.6000E-02  2.6000E-02  2.6000E-02  2.6000E-02  2.6000E-02  2.6000E-02  2.6000E-02
       2.6000E-02  2.6000E-02  2.6000E-02  2.6000E-02  2.6000E-02  2.6000E-02  2.6000E-02  5.2000E-02  5.2000E-02  5.2000E-02
       5.2000E-02  5.2000E-02  5.2000E-02  5.2000E-02  5.2000E-02  6.5000E-02  6.5000E-02  6.5000E-02  6.5000E-02  6.5000E-02
       6.5000E-02  6.5000E-02  0.1300      0.1300      0.1300      0.3900      0.3900      0.3900      0.3900      6.5000E-02
       5.2000E-02  5.2000E-02  5.2000E-02  5.2000E-02  5.2000E-02  5.2000E-02  5.2000E-02  0.3900      0.3900      0.1300    
       2.6000E-02  2.6000E-02  2.6000E-02  2.6000E-02  2.6000E-02  2.6000E-02  2.6000E-02  5.2000E-02  5.2000E-02  6.5000E-02
       6.5000E-02  0.1300      0.1300      6.5000E-02  6.5000E-02  6.5000E-02  6.5000E-02  6.5000E-02  6.5000E-02  6.5000E-02
       0.1300      0.1300      0.3900      0.1300      6.5000E-02  6.5000E-02  5.2000E-02   0.000       0.000       0.000    
        0.000    
  50    0.000       0.000       0.000      2.6000E-02  2.6000E-02  2.6000E-02  2.6000E-02  2.6000E-02  2.6000E-02  2.6000E-02
       2.6000E-02  2.6000E-02  2.6000E-02  2.6000E-02  2.6000E-02  2.6000E-02  2.6000E-02  5.2000E-02  5.2000E-02  5.2000E-02
       5.2000E-02  5.2000E-02  5.2000E-02  5.2000E-02  5.2000E-02  5.2000E-02  6.5000E-02  6.5000E-02  6.5000E-02  6.5000E-02
       6.5000E-02  6.5000E-02  0.1300      0.1300      0.1300      0.3900      0.3900      0.3900      0.3900      6.5000E-02
       5.2000E-02  5.2000E-02  5.2000E-02  5.2000E-02  5.2000E-02  5.2000E-02  5.2000E-02  0.3900      0.3900      0.1300    
       2.6000E-02  2.6000E-02  2.6000E-02  2.6000E-02  2.6000E-02  2.6000E-02  2.6000E-02  5.2000E-02  5.2000E-02  6.5000E-02
       6.5000E-02  0.1300      0.1300      6.5000E-02  6.5000E-02  6.5000E-02  6.5000E-02  6.5000E-02  6.5000E-02  6.5000E-02
       0.1300      0.3900      0.3900      0.1300      6.5000E-02  6.5000E-02  5.2000E-02   0.000       0.000       0.000    
        0.000    
  51    0.000       0.000       0.000       0.000       0.000       0.000       0.000      2.6000E-02  2.6000E-02  2.6000E-02
       2.6000E-02  2.6000E-02  2.6000E-02   0.000      2.6000E-02  2.6000E-02  2.6000E-02  2.6000E-02  5.2000E-02  5.2000E-02
       5.2000E-02  5.2000E-02  5.2000E-02  5.2000E-02  5.2000E-02  5.2000E-02  5.2000E-02  6.5000E-02  6.5000E-02  6.5000E-02
       6.5000E-02  6.5000E-02  0.1300      0.1300      0.1300      0.3900      0.3900      0.3900      0.3900      6.5000E-02
       5.2000E-02  2.6000E-02  2.6000E-02  2.6000E-02  2.6000E-02  2.6000E-02  5.2000E-02  0.3900      0.1300      0.1300    
       2.6000E-02  2.6000E-02  2.6000E-02  2.6000E-02  2.6000E-02  2.6000E-02  2.6000E-02  5.2000E-02  5.2000E-02  6.5000E-02
       6.5000E-02  0.1300      0.1300      6.5000E-02  6.5000E-02  6.5000E-02  6.5000E-02  6.5000E-02  6.5000E-02  6.5000E-02
       0.3900      0.3900      0.1300      0.1300      6.5000E-02  6.5000E-02   0.000       0.000       0.000       0.000    
        0.000    
  52    0.000       0.000       0.000       0.000       0.000       0.000       0.000       0.000       0.000       0.000    
        0.000       0.000       0.000       0.000       0.000      2.6000E-02  2.6000E-02  2.6000E-02  5.2000E-02  5.2000E-02
       5.2000E-02  5.2000E-02  5.2000E-02  5.2000E-02  5.2000E-02  5.2000E-02  5.2000E-02  5.2000E-02  6.5000E-02  6.5000E-02
       6.5000E-02  6.5000E-02  0.1300      0.1300      0.1300      0.3900      0.3900      0.3900      6.5000E-02  6.5000E-02
       5.2000E-02  2.6000E-02  2.6000E-02  2.6000E-02  2.6000E-02  2.6000E-02  5.2000E-02  0.1300      0.1300      0.1300    
       2.6000E-02  2.6000E-02  2.6000E-02  2.6000E-02  2.6000E-02  2.6000E-02  2.6000E-02  5.2000E-02  5.2000E-02  6.5000E-02
       0.1300      0.1300      0.1300      6.5000E-02  6.5000E-02  6.5000E-02  6.5000E-02  6.5000E-02  6.5000E-02  6.5000E-02
       0.3900      0.3900      0.1300      0.1300      6.5000E-02  6.5000E-02   0.000       0.000       0.000       0.000    
        0.000    
  53    0.000       0.000       0.000       0.000       0.000       0.000       0.000       0.000       0.000       0.000    
        0.000       0.000       0.000       0.000       0.000       0.000       0.000      2.6000E-02  2.6000E-02  5.2000E-02
       5.2000E-02  5.2000E-02  5.2000E-02  5.2000E-02  5.2000E-02  5.2000E-02  5.2000E-02  5.2000E-02  6.5000E-02  6.5000E-02
       6.5000E-02  6.5000E-02  0.1300      0.1300      0.1300      0.3900      0.3900      0.3900      6.5000E-02  6.5000E-02
       5.2000E-02  2.6000E-02  2.6000E-02  2.6000E-02  2.6000E-02  2.6000E-02  5.2000E-02  0.1300      0.1300      0.1300    
       2.6000E-02  2.6000E-02  2.6000E-02  2.6000E-02  2.6000E-02  2.6000E-02  2.6000E-02  5.2000E-02  5.2000E-02  6.5000E-02
       0.1300      0.1300      0.1300      6.5000E-02  6.5000E-02  6.5000E-02  6.5000E-02  6.5000E-02  6.5000E-02  6.5000E-02
       0.3900      0.3900      0.1300      0.1300      6.5000E-02  6.5000E-02   0.000       0.000       0.000       0.000    
        0.000    
  54    0.000       0.000       0.000       0.000       0.000       0.000       0.000       0.000       0.000       0.000    
        0.000       0.000       0.000       0.000       0.000       0.000       0.000      2.6000E-02  2.6000E-02  2.6000E-02
       5.2000E-02  5.2000E-02  5.2000E-02  5.2000E-02  5.2000E-02  5.2000E-02  5.2000E-02  5.2000E-02  5.2000E-02  6.5000E-02
       6.5000E-02  6.5000E-02  0.1300      0.1300      0.1300      0.3900      0.3900      0.3900      6.5000E-02  6.5000E-02
       5.2000E-02  2.6000E-02  2.6000E-02  2.6000E-02  2.6000E-02  2.6000E-02  5.2000E-02  0.1300      0.1300      0.1300    
       2.6000E-02  2.6000E-02  2.6000E-02  2.6000E-02  2.6000E-02  2.6000E-02  2.6000E-02  5.2000E-02  5.2000E-02  6.5000E-02
       0.1300      0.1300      0.1300      6.5000E-02  6.5000E-02  6.5000E-02  6.5000E-02  6.5000E-02  6.5000E-02  0.1300    
       0.3900      0.3900      0.1300      0.1300      6.5000E-02  6.5000E-02   0.000       0.000       0.000       0.000    
        0.000    
  55    0.000       0.000       0.000       0.000       0.000       0.000       0.000       0.000       0.000       0.000    
        0.000       0.000       0.000       0.000       0.000       0.000       0.000       0.000      2.6000E-02  2.6000E-02
       2.6000E-02  5.2000E-02  5.2000E-02  5.2000E-02  5.2000E-02  5.2000E-02  5.2000E-02  5.2000E-02  5.2000E-02  6.5000E-02
       6.5000E-02  6.5000E-02  0.1300      0.1300      0.1300      0.3900      0.3900      0.3900      6.5000E-02  5.2000E-02
       5.2000E-02  2.6000E-02  2.6000E-02  2.6000E-02  2.6000E-02  2.6000E-02  5.2000E-02  0.1300      0.1300      0.1300    
       2.6000E-02  2.6000E-02  2.6000E-02  2.6000E-02  2.6000E-02  2.6000E-02  2.6000E-02  5.2000E-02  5.2000E-02  6.5000E-02
       0.1300      0.1300      0.1300      6.5000E-02  6.5000E-02  6.5000E-02  6.5000E-02  6.5000E-02  6.5000E-02  0.1300    
       0.3900      0.3900      0.1300      0.1300      6.5000E-02  6.5000E-02   0.000       0.000       0.000       0.000    
        0.000    
  56    0.000       0.000       0.000       0.000       0.000       0.000       0.000       0.000       0.000       0.000    
        0.000       0.000       0.000       0.000       0.000       0.000       0.000       0.000       0.000       0.000    
        0.000      5.2000E-02  5.2000E-02  5.2000E-02  5.2000E-02  5.2000E-02  5.2000E-02  5.2000E-02  5.2000E-02  6.5000E-02
       6.5000E-02  6.5000E-02  0.1300      0.1300      0.1300      0.3900      0.3900      0.3900      6.5000E-02  5.2000E-02
       5.2000E-02  2.6000E-02  2.6000E-02  2.6000E-02  2.6000E-02  2.6000E-02  5.2000E-02  0.1300      0.1300      0.1300    
       6.5000E-02  5.2000E-02  2.6000E-02  2.6000E-02  2.6000E-02  2.6000E-02  5.2000E-02  5.2000E-02  5.2000E-02  6.5000E-02
       0.1300      0.1300      0.1300      6.5000E-02  6.5000E-02  6.5000E-02  6.5000E-02  6.5000E-02  6.5000E-02  0.1300    
       0.3900      0.1300      0.1300      0.1300      6.5000E-02  6.5000E-02   0.000       0.000       0.000       0.000    
        0.000    
  57    0.000       0.000       0.000       0.000       0.000       0.000       0.000       0.000       0.000       0.000    
        0.000       0.000       0.000       0.000       0.000       0.000       0.000       0.000       0.000       0.000    
        0.000       0.000      5.2000E-02  5.2000E-02  5.2000E-02  5.2000E-02  5.2000E-02  5.2000E-02  5.2000E-02  5.2000E-02
       6.5000E-02  6.5000E-02  0.1300      0.1300      0.1300      0.3900      0.3900      0.1300      6.5000E-02  5.2000E-02
       5.2000E-02  2.6000E-02  2.6000E-02  2.6000E-02  2.6000E-02  2.6000E-02  5.2000E-02  5.2000E-02  5.2000E-02  0.1300    
       6.5000E-02  5.2000E-02  2.6000E-02  2.6000E-02  2.6000E-02  2.6000E-02  5.2000E-02  5.2000E-02  5.2000E-02  6.5000E-02
       0.1300      0.1300      6.5000E-02  6.5000E-02  5.2000E-02  5.2000E-02  6.5000E-02  6.5000E-02  6.5000E-02  0.1300    
       0.1300      6.5000E-02  0.1300      0.1300      6.5000E-02  6.5000E-02   0.000       0.000       0.000       0.000    
        0.000    
  58    0.000       0.000       0.000       0.000       0.000       0.000       0.000       0.000       0.000       0.000    
        0.000       0.000       0.000       0.000       0.000       0.000       0.000       0.000       0.000       0.000    
        0.000       0.000       0.000      5.2000E-02  5.2000E-02  5.2000E-02  5.2000E-02  5.2000E-02  5.2000E-02  5.2000E-02
       6.5000E-02  6.5000E-02  0.1300      0.1300      0.1300      0.3900      0.3900      0.1300      6.5000E-02  5.2000E-02
       5.2000E-02  2.6000E-02  2.6000E-02  2.6000E-02  2.6000E-02  2.6000E-02  2.6000E-02  5.2000E-02  5.2000E-02  0.1300    
       6.5000E-02  5.2000E-02  2.6000E-02  2.6000E-02  2.6000E-02  2.6000E-02  5.2000E-02  5.2000E-02  5.2000E-02  6.5000E-02
       0.1300      6.5000E-02  6.5000E-02  6.5000E-02  5.2000E-02  5.2000E-02  5.2000E-02  6.5000E-02  6.5000E-02  0.1300    
       0.1300      6.5000E-02  0.1300      0.1300      6.5000E-02  6.5000E-02   0.000       0.000       0.000       0.000    
        0.000    
  59    0.000       0.000       0.000       0.000       0.000       0.000       0.000       0.000       0.000       0.000    
        0.000       0.000       0.000       0.000       0.000       0.000       0.000       0.000       0.000       0.000    
        0.000       0.000       0.000       0.000       0.000       0.000       0.000       0.000       0.000      5.2000E-02
       5.2000E-02  6.5000E-02  0.1300      0.1300      0.1300      0.3900      0.3900      0.1300      6.5000E-02  5.2000E-02
       5.2000E-02  2.6000E-02  2.6000E-02  2.6000E-02  2.6000E-02  2.6000E-02  2.6000E-02  5.2000E-02  5.2000E-02  0.1300    
       0.1300      5.2000E-02  5.2000E-02  5.2000E-02  5.2000E-02  5.2000E-02  5.2000E-02  5.2000E-02  5.2000E-02  6.5000E-02
       6.5000E-02  6.5000E-02  6.5000E-02  6.5000E-02  5.2000E-02  5.2000E-02  5.2000E-02  6.5000E-02  6.5000E-02  0.1300    
       0.1300      6.5000E-02  0.1300      0.1300      6.5000E-02  6.5000E-02   0.000       0.000       0.000       0.000    
        0.000    
  60    0.000       0.000       0.000       0.000       0.000       0.000       0.000       0.000       0.000       0.000    
        0.000       0.000       0.000       0.000       0.000       0.000       0.000       0.000       0.000       0.000    
        0.000       0.000       0.000       0.000       0.000       0.000       0.000       0.000       0.000       0.000    
        0.000      6.5000E-02  0.1300      0.1300      0.1300      0.3900      0.3900      0.1300      5.2000E-02  5.2000E-02
       5.2000E-02  2.6000E-02  2.6000E-02  2.6000E-02  2.6000E-02  2.6000E-02  2.6000E-02  5.2000E-02  5.2000E-02  5.2000E-02
       0.1300      5.2000E-02  5.2000E-02  5.2000E-02  5.2000E-02  5.2000E-02  5.2000E-02  5.2000E-02  6.5000E-02  6.5000E-02
       6.5000E-02  5.2000E-02  5.2000E-02  5.2000E-02  5.2000E-02  5.2000E-02  5.2000E-02  6.5000E-02  0.1300      0.1300    
       0.1300      6.5000E-02  6.5000E-02  6.5000E-02  6.5000E-02  6.5000E-02   0.000       0.000       0.000       0.000    
        0.000    
  61    0.000       0.000       0.000       0.000       0.000       0.000       0.000       0.000       0.000       0.000    
        0.000       0.000       0.000       0.000       0.000       0.000       0.000       0.000       0.000       0.000    
        0.000       0.000       0.000       0.000       0.000       0.000       0.000       0.000       0.000       0.000    
        0.000       0.000      6.5000E-02  6.5000E-02  6.5000E-02  6.5000E-02  6.5000E-02  6.5000E-02  5.2000E-02  5.2000E-02
       5.2000E-02  2.6000E-02  2.6000E-02  2.6000E-02  2.6000E-02  2.6000E-02  2.6000E-02  2.6000E-02  5.2000E-02  5.2000E-02
       0.1300      0.1300      5.2000E-02  5.2000E-02  5.2000E-02  5.2000E-02  5.2000E-02  5.2000E-02  5.2000E-02  5.2000E-02
       5.2000E-02  5.2000E-02  5.2000E-02  5.2000E-02  5.2000E-02  5.2000E-02  5.2000E-02  6.5000E-02  0.1300      6.5000E-02
       0.1300      6.5000E-02  6.5000E-02  6.5000E-02  6.5000E-02  6.5000E-02   0.000       0.000       0.000       0.000    
        0.000    
  62    0.000       0.000       0.000       0.000       0.000       0.000       0.000       0.000       0.000       0.000    
        0.000       0.000       0.000       0.000       0.000       0.000       0.000       0.000       0.000       0.000    
        0.000       0.000       0.000       0.000       0.000       0.000       0.000       0.000       0.000       0.000    
        0.000       0.000       0.000      6.5000E-02  6.5000E-02   0.000       0.000       0.000       0.000       0.000    
        0.000       0.000       0.000       0.000       0.000       0.000      2.6000E-02  2.6000E-02  5.2000E-02  5.2000E-02
       6.5000E-02  0.1300      5.2000E-02  5.2000E-02  5.2000E-02  5.2000E-02  5.2000E-02  5.2000E-02  5.2000E-02  5.2000E-02
       5.2000E-02  5.2000E-02  5.2000E-02  5.2000E-02  5.2000E-02  5.2000E-02  6.5000E-02  0.1300      0.1300      6.5000E-02
       6.5000E-02  6.5000E-02  6.5000E-02  6.5000E-02  6.5000E-02  6.5000E-02   0.000       0.000       0.000       0.000    
        0.000    
  63    0.000       0.000       0.000       0.000       0.000       0.000       0.000       0.000       0.000       0.000    
        0.000       0.000       0.000       0.000       0.000       0.000       0.000       0.000       0.000       0.000    
        0.000       0.000       0.000       0.000       0.000       0.000       0.000       0.000       0.000       0.000    
        0.000       0.000       0.000       0.000       0.000       0.000       0.000       0.000       0.000       0.000    
        0.000       0.000       0.000       0.000       0.000       0.000      2.6000E-02  2.6000E-02  2.6000E-02  5.2000E-02
       6.5000E-02  6.5000E-02  5.2000E-02  5.2000E-02  5.2000E-02  5.2000E-02  5.2000E-02  5.2000E-02  5.2000E-02  5.2000E-02
       5.2000E-02  5.2000E-02  5.2000E-02  5.2000E-02  5.2000E-02  5.2000E-02  6.5000E-02  0.1300      0.1300      6.5000E-02
       6.5000E-02  6.5000E-02  6.5000E-02  6.5000E-02  6.5000E-02  6.5000E-02   0.000       0.000       0.000       0.000    
        0.000    
  64    0.000       0.000       0.000       0.000       0.000       0.000       0.000       0.000       0.000       0.000    
        0.000       0.000       0.000       0.000       0.000       0.000       0.000       0.000       0.000       0.000    
        0.000       0.000       0.000       0.000       0.000       0.000       0.000       0.000       0.000       0.000    
        0.000       0.000       0.000       0.000       0.000       0.000       0.000       0.000       0.000       0.000    
        0.000       0.000       0.000       0.000       0.000       0.000      2.6000E-02  2.6000E-02  2.6000E-02  5.2000E-02
       6.5000E-02  6.5000E-02  5.2000E-02  5.2000E-02  5.2000E-02  5.2000E-02  5.2000E-02  5.2000E-02  5.2000E-02  5.2000E-02
       5.2000E-02  5.2000E-02  5.2000E-02  5.2000E-02  5.2000E-02  5.2000E-02  6.5000E-02  0.1300      6.5000E-02  6.5000E-02
       6.5000E-02  6.5000E-02  6.5000E-02  6.5000E-02  6.5000E-02  6.5000E-02   0.000       0.000       0.000       0.000    
        0.000    
  65    0.000       0.000       0.000       0.000       0.000       0.000       0.000       0.000       0.000       0.000    
        0.000       0.000       0.000       0.000       0.000       0.000       0.000       0.000       0.000       0.000    
        0.000       0.000       0.000       0.000       0.000       0.000       0.000       0.000       0.000       0.000    
        0.000       0.000       0.000       0.000       0.000       0.000       0.000       0.000       0.000       0.000    
        0.000       0.000       0.000       0.000       0.000       0.000       0.000       0.000      2.6000E-02  2.6000E-02
       6.5000E-02  6.5000E-02  5.2000E-02  5.2000E-02  5.2000E-02  5.2000E-02  5.2000E-02  5.2000E-02  5.2000E-02  5.2000E-02
       5.2000E-02  5.2000E-02  5.2000E-02  5.2000E-02  5.2000E-02  6.5000E-02  6.5000E-02  6.5000E-02  6.5000E-02  6.5000E-02
       6.5000E-02  6.5000E-02  6.5000E-02  6.5000E-02  6.5000E-02  6.5000E-02   0.000       0.000       0.000       0.000    
        0.000    
  66    0.000       0.000       0.000       0.000       0.000       0.000       0.000       0.000       0.000       0.000    
        0.000       0.000       0.000       0.000       0.000       0.000       0.000       0.000       0.000       0.000    
        0.000       0.000       0.000       0.000       0.000       0.000       0.000       0.000       0.000       0.000    
        0.000       0.000       0.000       0.000       0.000       0.000       0.000       0.000       0.000       0.000    
        0.000       0.000       0.000       0.000       0.000       0.000       0.000       0.000       0.000      2.6000E-02
       2.6000E-02  5.2000E-02  5.2000E-02  5.2000E-02  5.2000E-02  5.2000E-02  5.2000E-02  5.2000E-02  5.2000E-02  5.2000E-02
       5.2000E-02  5.2000E-02  5.2000E-02  5.2000E-02  5.2000E-02  6.5000E-02  6.5000E-02  6.5000E-02  6.5000E-02  6.5000E-02
       6.5000E-02  6.5000E-02  6.5000E-02  6.5000E-02  6.5000E-02  5.2000E-02   0.000       0.000       0.000       0.000    
        0.000    
  67    0.000       0.000       0.000       0.000       0.000       0.000       0.000       0.000       0.000       0.000    
        0.000       0.000       0.000       0.000       0.000       0.000       0.000       0.000       0.000       0.000    
        0.000       0.000       0.000       0.000       0.000       0.000       0.000       0.000       0.000       0.000    
        0.000       0.000       0.000       0.000       0.000       0.000       0.000       0.000       0.000       0.000    
        0.000       0.000       0.000       0.000       0.000       0.000       0.000       0.000       0.000      2.6000E-02
       2.6000E-02  5.2000E-02  5.2000E-02  5.2000E-02  2.6000E-02  2.6000E-02  2.6000E-02  2.6000E-02  2.6000E-02  2.6000E-02
       2.6000E-02  5.2000E-02  5.2000E-02  5.2000E-02  5.2000E-02  6.5000E-02  6.5000E-02  6.5000E-02  6.5000E-02  6.5000E-02
       6.5000E-02  6.5000E-02  6.5000E-02  6.5000E-02  5.2000E-02  5.2000E-02   0.000       0.000       0.000       0.000    
        0.000    
  68    0.000       0.000       0.000       0.000       0.000       0.000       0.000       0.000       0.000       0.000    
        0.000       0.000       0.000       0.000       0.000       0.000       0.000       0.000       0.000       0.000    
        0.000       0.000       0.000       0.000       0.000       0.000       0.000       0.000       0.000       0.000    
        0.000       0.000       0.000       0.000       0.000       0.000       0.000       0.000       0.000       0.000    
        0.000       0.000       0.000       0.000       0.000       0.000       0.000       0.000       0.000       0.000    
       2.6000E-02  5.2000E-02  5.2000E-02  5.2000E-02  2.6000E-02  2.6000E-02  2.6000E-02  2.6000E-02  2.6000E-02  2.6000E-02
       2.6000E-02  5.2000E-02  5.2000E-02  5.2000E-02  5.2000E-02  6.5000E-02  6.5000E-02  6.5000E-02  6.5000E-02  6.5000E-02
       6.5000E-02  6.5000E-02  6.5000E-02  6.5000E-02  5.2000E-02  5.2000E-02   0.000       0.000       0.000       0.000    
        0.000    
  69    0.000       0.000       0.000       0.000       0.000       0.000       0.000       0.000       0.000       0.000    
        0.000       0.000       0.000       0.000       0.000       0.000       0.000       0.000       0.000       0.000    
        0.000       0.000       0.000       0.000       0.000       0.000       0.000       0.000       0.000       0.000    
        0.000       0.000       0.000       0.000       0.000       0.000       0.000       0.000       0.000       0.000    
        0.000       0.000       0.000       0.000       0.000       0.000       0.000       0.000       0.000       0.000    
        0.000       0.000       0.000       0.000       0.000       0.000      2.6000E-02  2.6000E-02  2.6000E-02  2.6000E-02
       2.6000E-02  5.2000E-02  5.2000E-02  5.2000E-02  6.5000E-02  6.5000E-02  6.5000E-02  6.5000E-02  6.5000E-02  6.5000E-02
       6.5000E-02  6.5000E-02  6.5000E-02  6.5000E-02  5.2000E-02  5.2000E-02   0.000       0.000       0.000       0.000    
        0.000    
  70    0.000       0.000       0.000       0.000       0.000       0.000       0.000       0.000       0.000       0.000    
        0.000       0.000       0.000       0.000       0.000       0.000       0.000       0.000       0.000       0.000    
        0.000       0.000       0.000       0.000       0.000       0.000       0.000       0.000       0.000       0.000    
        0.000       0.000       0.000       0.000       0.000       0.000       0.000       0.000       0.000       0.000    
        0.000       0.000       0.000       0.000       0.000       0.000       0.000       0.000       0.000       0.000    
        0.000       0.000       0.000       0.000       0.000       0.000      2.6000E-02  2.6000E-02  2.6000E-02  2.6000E-02
       2.6000E-02  6.5000E-02  6.5000E-02  6.5000E-02  6.5000E-02  6.5000E-02  6.5000E-02  6.5000E-02  6.5000E-02  6.5000E-02
       6.5000E-02  6.5000E-02  6.5000E-02  6.5000E-02  5.2000E-02   0.000       0.000       0.000       0.000       0.000    
        0.000    
  71    0.000       0.000       0.000       0.000       0.000       0.000       0.000       0.000       0.000       0.000    
        0.000       0.000       0.000       0.000       0.000       0.000       0.000       0.000       0.000       0.000    
        0.000       0.000       0.000       0.000       0.000       0.000       0.000       0.000       0.000       0.000    
        0.000       0.000       0.000       0.000       0.000       0.000       0.000       0.000       0.000       0.000    
        0.000       0.000       0.000       0.000       0.000       0.000       0.000       0.000       0.000       0.000    
        0.000       0.000       0.000       0.000       0.000       0.000       0.000      2.6000E-02  2.6000E-02  5.2000E-02
       6.5000E-02  6.5000E-02  6.5000E-02  6.5000E-02   0.000       0.000       0.000       0.000       0.000       0.000    
        0.000       0.000       0.000       0.000      5.2000E-02   0.000       0.000       0.000       0.000       0.000    
        0.000    
  72    0.000       0.000       0.000       0.000       0.000       0.000       0.000       0.000       0.000       0.000    
        0.000       0.000       0.000       0.000       0.000       0.000       0.000       0.000       0.000       0.000    
        0.000       0.000       0.000       0.000       0.000       0.000       0.000       0.000       0.000       0.000    
        0.000       0.000       0.000       0.000       0.000       0.000       0.000       0.000       0.000       0.000    
        0.000       0.000       0.000       0.000       0.000       0.000       0.000       0.000       0.000       0.000    
        0.000       0.000       0.000       0.000       0.000       0.000       0.000       0.000      2.6000E-02  5.2000E-02
       6.5000E-02  6.5000E-02   0.000       0.000       0.000       0.000       0.000       0.000       0.000       0.000    
        0.000       0.000       0.000       0.000       0.000       0.000       0.000       0.000       0.000       0.000    
        0.000    
  73    0.000       0.000       0.000       0.000       0.000       0.000       0.000       0.000       0.000       0.000    
        0.000       0.000       0.000       0.000       0.000       0.000       0.000       0.000       0.000       0.000    
        0.000       0.000       0.000       0.000       0.000       0.000       0.000       0.000       0.000       0.000    
        0.000       0.000       0.000       0.000       0.000       0.000       0.000       0.000       0.000       0.000    
        0.000       0.000       0.000       0.000       0.000       0.000       0.000       0.000       0.000       0.000    
        0.000       0.000       0.000       0.000       0.000       0.000       0.000       0.000      2.6000E-02  5.2000E-02
       6.5000E-02   0.000       0.000       0.000       0.000       0.000       0.000       0.000       0.000       0.000    
        0.000       0.000       0.000       0.000       0.000       0.000       0.000       0.000       0.000       0.000    
        0.000    



                VERTICAL HYD. COND. FOR LAYER   1
 READING ON UNIT   12 WITH FORMAT: (FREE)              

            1           2           3           4           5           6           7           8           9          10
           11          12          13          14          15          16          17          18          19          20
           21          22          23          24          25          26          27          28          29          30
           31          32          33          34          35          36          37          38          39          40
           41          42          43          44          45          46          47          48          49          50
           51          52          53          54          55          56          57          58          59          60
           61          62          63          64          65          66          67          68          69          70
           71          72          73          74          75          76          77          78          79          80
           81
 ........................................................................................................................
   1    0.000       0.000       0.000       0.000       0.000       0.000       0.000       0.000       0.000       0.000    
        0.000       0.000       0.000       0.000       0.000       0.000       0.000       0.000       0.000       0.000    
        0.000       0.000       0.000       0.000       0.000       0.000       0.000       0.000       0.000       0.000    
        0.000       0.000       0.000       0.000       0.000       0.000       0.000       0.000       0.000       0.000    
        0.000       0.000       0.000       0.000       0.000       0.000       0.000       0.000       0.000       0.000    
        0.000       0.000       0.000       0.000       0.000       0.000       0.000       0.000       0.000       0.000    
        0.000       0.000       0.000      2.6000E-02  2.6000E-02   0.000       0.000       0.000       0.000       0.000    
        0.000       0.000       0.000       0.000       0.000       0.000       0.000       0.000       0.000       0.000    
        0.000    
   2    0.000       0.000       0.000       0.000       0.000       0.000       0.000       0.000       0.000       0.000    
        0.000       0.000       0.000       0.000       0.000       0.000       0.000       0.000       0.000       0.000    
        0.000       0.000       0.000       0.000       0.000       0.000       0.000       0.000       0.000       0.000    
        0.000       0.000       0.000       0.000       0.000       0.000       0.000       0.000       0.000       0.000    
        0.000       0.000       0.000       0.000       0.000       0.000       0.000       0.000       0.000       0.000    
        0.000       0.000       0.000       0.000       0.000       0.000       0.000       0.000       0.000       0.000    
        0.000       0.000      2.6000E-02  6.5000E-02  6.5000E-02   0.000       0.000       0.000       0.000       0.000    
        0.000       0.000       0.000       0.000       0.000       0.000       0.000       0.000       0.000       0.000    
        0.000    
   3    0.000       0.000       0.000       0.000       0.000       0.000       0.000       0.000       0.000       0.000    
        0.000       0.000       0.000       0.000       0.000       0.000       0.000       0.000       0.000       0.000    
        0.000       0.000       0.000       0.000       0.000       0.000       0.000       0.000       0.000       0.000    
        0.000       0.000       0.000       0.000       0.000       0.000       0.000       0.000       0.000       0.000    
        0.000       0.000       0.000       0.000       0.000       0.000       0.000       0.000       0.000       0.000    
        0.000       0.000       0.000       0.000       0.000       0.000       0.000       0.000       0.000       0.000    
        0.000       0.000      6.5000E-02  6.5000E-02  0.1300       0.000       0.000       0.000       0.000       0.000    
        0.000       0.000       0.000       0.000       0.000       0.000       0.000       0.000       0.000       0.000    
        0.000    
   4    0.000       0.000       0.000       0.000       0.000       0.000       0.000       0.000       0.000       0.000    
        0.000       0.000       0.000       0.000       0.000       0.000       0.000       0.000       0.000       0.000    
        0.000       0.000       0.000       0.000       0.000       0.000       0.000       0.000       0.000       0.000    
        0.000       0.000       0.000       0.000       0.000       0.000       0.000       0.000       0.000       0.000    
        0.000       0.000       0.000       0.000       0.000       0.000       0.000       0.000       0.000       0.000    
        0.000       0.000       0.000       0.000       0.000       0.000       0.000       0.000       0.000       0.000    
        0.000      2.6000E-02  6.5000E-02  6.5000E-02  0.1300       0.000       0.000       0.000       0.000       0.000    
        0.000       0.000       0.000       0.000       0.000       0.000       0.000       0.000       0.000       0.000    
        0.000    
   5    0.000       0.000       0.000       0.000       0.000       0.000       0.000       0.000       0.000       0.000    
        0.000       0.000       0.000       0.000       0.000       0.000       0.000       0.000       0.000       0.000    
        0.000       0.000       0.000       0.000       0.000       0.000       0.000       0.000       0.000       0.000    
        0.000       0.000       0.000       0.000       0.000       0.000       0.000       0.000       0.000       0.000    
        0.000       0.000       0.000       0.000       0.000       0.000       0.000       0.000       0.000       0.000    
        0.000       0.000       0.000       0.000       0.000       0.000       0.000       0.000       0.000       0.000    
        0.000      6.5000E-02  6.5000E-02  6.5000E-02  0.1300      6.5000E-02   0.000       0.000       0.000       0.000    
        0.000       0.000       0.000       0.000       0.000       0.000       0.000       0.000       0.000       0.000    
        0.000    
   6    0.000       0.000       0.000       0.000       0.000       0.000       0.000       0.000       0.000       0.000    
        0.000       0.000       0.000       0.000       0.000       0.000       0.000       0.000       0.000       0.000    
        0.000       0.000       0.000       0.000       0.000       0.000       0.000       0.000       0.000       0.000    
        0.000       0.000       0.000       0.000       0.000       0.000       0.000       0.000       0.000       0.000    
        0.000       0.000       0.000       0.000       0.000       0.000       0.000       0.000       0.000       0.000    
        0.000       0.000       0.000       0.000       0.000       0.000       0.000       0.000       0.000       0.000    
        0.000      6.5000E-02  6.5000E-02  6.5000E-02  0.1300      0.1300      6.5000E-02   0.000       0.000       0.000    
        0.000       0.000       0.000       0.000       0.000       0.000       0.000       0.000       0.000       0.000    
        0.000    
   7    0.000       0.000       0.000       0.000       0.000       0.000       0.000       0.000       0.000       0.000    
        0.000       0.000       0.000       0.000       0.000       0.000       0.000       0.000       0.000       0.000    
        0.000       0.000       0.000       0.000       0.000       0.000       0.000       0.000       0.000       0.000    
        0.000       0.000       0.000       0.000       0.000       0.000       0.000       0.000       0.000       0.000    
        0.000       0.000       0.000       0.000       0.000       0.000       0.000       0.000       0.000       0.000    
        0.000       0.000       0.000       0.000       0.000       0.000       0.000       0.000       0.000       0.000    
       2.6000E-02  6.5000E-02  6.5000E-02  6.5000E-02  0.1300      0.1300      0.1300      6.5000E-02   0.000       0.000    
        0.000       0.000       0.000       0.000       0.000       0.000       0.000       0.000       0.000       0.000    
        0.000    
   8    0.000       0.000       0.000       0.000       0.000       0.000       0.000       0.000       0.000       0.000    
        0.000       0.000       0.000       0.000       0.000       0.000       0.000       0.000       0.000       0.000    
        0.000       0.000       0.000       0.000       0.000       0.000       0.000       0.000       0.000       0.000    
        0.000       0.000       0.000       0.000       0.000       0.000       0.000       0.000       0.000       0.000    
        0.000       0.000       0.000       0.000       0.000       0.000       0.000       0.000       0.000       0.000    
        0.000       0.000       0.000       0.000       0.000       0.000       0.000       0.000       0.000       0.000    
       5.2000E-02  6.5000E-02  6.5000E-02  6.5000E-02  0.1300      0.1300      0.1300      6.5000E-02  6.5000E-02  6.5000E-02
       6.5000E-02   0.000       0.000       0.000       0.000       0.000       0.000       0.000       0.000       0.000    
        0.000    
   9    0.000       0.000       0.000       0.000       0.000       0.000       0.000       0.000       0.000       0.000    
        0.000       0.000       0.000       0.000       0.000       0.000       0.000       0.000       0.000       0.000    
        0.000       0.000       0.000       0.000       0.000       0.000       0.000       0.000       0.000       0.000    
        0.000       0.000       0.000       0.000       0.000       0.000       0.000       0.000       0.000       0.000    
        0.000       0.000       0.000       0.000       0.000       0.000       0.000       0.000      5.2000E-02  5.2000E-02
        0.000       0.000       0.000       0.000       0.000       0.000       0.000       0.000      6.5000E-02  6.5000E-02
       6.5000E-02  6.5000E-02  6.5000E-02  6.5000E-02  0.1300      0.1300      0.1300      6.5000E-02  6.5000E-02  6.5000E-02
       6.5000E-02  6.5000E-02  6.5000E-02  6.5000E-02  6.5000E-02   0.000       0.000       0.000       0.000       0.000    
        0.000    
  10    0.000       0.000       0.000       0.000       0.000       0.000       0.000       0.000       0.000       0.000    
        0.000       0.000       0.000       0.000       0.000       0.000       0.000       0.000       0.000       0.000    
        0.000       0.000       0.000       0.000       0.000       0.000       0.000       0.000       0.000       0.000    
        0.000       0.000       0.000       0.000       0.000       0.000       0.000       0.000       0.000       0.000    
        0.000       0.000       0.000       0.000       0.000       0.000       0.000      5.2000E-02  5.2000E-02  5.2000E-02
       5.2000E-02  5.2000E-02  5.2000E-02   0.000       0.000       0.000      5.2000E-02  6.5000E-02  6.5000E-02  6.5000E-02
       6.5000E-02  6.5000E-02  6.5000E-02  6.5000E-02  0.1300      0.1300      0.1300      6.5000E-02  6.5000E-02  6.5000E-02
       6.5000E-02  6.5000E-02  6.5000E-02  6.5000E-02  6.5000E-02  6.5000E-02   0.000       0.000       0.000       0.000    
        0.000    
  11    0.000       0.000       0.000       0.000       0.000       0.000       0.000       0.000       0.000       0.000    
        0.000       0.000       0.000       0.000       0.000       0.000       0.000       0.000       0.000       0.000    
        0.000       0.000       0.000       0.000       0.000       0.000       0.000       0.000       0.000       0.000    
        0.000       0.000       0.000       0.000       0.000       0.000       0.000       0.000       0.000       0.000    
        0.000       0.000       0.000       0.000       0.000       0.000      5.2000E-02  5.2000E-02  5.2000E-02  5.2000E-02
       5.2000E-02  5.2000E-02  5.2000E-02  5.2000E-02  5.2000E-02  5.2000E-02  5.2000E-02  6.5000E-02  6.5000E-02  6.5000E-02
       6.5000E-02  6.5000E-02  6.5000E-02  6.5000E-02  0.1300      0.1300      0.1300      6.5000E-02  6.5000E-02  6.5000E-02
       6.5000E-02  6.5000E-02  6.5000E-02  6.5000E-02  6.5000E-02  6.5000E-02   0.000       0.000       0.000       0.000    
        0.000    
  12    0.000       0.000       0.000       0.000       0.000       0.000       0.000       0.000       0.000       0.000    
        0.000       0.000       0.000       0.000       0.000       0.000       0.000       0.000       0.000       0.000    
        0.000       0.000       0.000       0.000       0.000       0.000       0.000       0.000       0.000       0.000    
        0.000       0.000       0.000       0.000       0.000       0.000       0.000       0.000       0.000       0.000    
        0.000       0.000       0.000       0.000       0.000       0.000      5.2000E-02  5.2000E-02  5.2000E-02  6.5000E-02
       6.5000E-02  6.5000E-02  6.5000E-02  6.5000E-02  6.5000E-02  6.5000E-02  6.5000E-02  6.5000E-02  6.5000E-02  6.5000E-02
       6.5000E-02  6.5000E-02  6.5000E-02  6.5000E-02  0.1300      0.1300      0.1300      6.5000E-02  6.5000E-02  6.5000E-02
       6.5000E-02  6.5000E-02  6.5000E-02  6.5000E-02  6.5000E-02  6.5000E-02  6.5000E-02   0.000       0.000       0.000    
        0.000    
  13    0.000       0.000       0.000       0.000       0.000       0.000       0.000       0.000       0.000       0.000    
        0.000       0.000       0.000       0.000       0.000       0.000       0.000       0.000       0.000       0.000    
        0.000       0.000       0.000       0.000       0.000       0.000       0.000       0.000       0.000       0.000    
        0.000       0.000       0.000       0.000       0.000       0.000       0.000       0.000       0.000       0.000    
        0.000       0.000       0.000       0.000      5.2000E-02  5.2000E-02  5.2000E-02  5.2000E-02  5.2000E-02  6.5000E-02
       6.5000E-02  6.5000E-02  6.5000E-02  6.5000E-02  6.5000E-02  6.5000E-02  6.5000E-02  6.5000E-02  6.5000E-02  6.5000E-02
       6.5000E-02  6.5000E-02  6.5000E-02  6.5000E-02  0.1300      0.1300      0.1300      6.5000E-02  6.5000E-02  6.5000E-02
       6.5000E-02  6.5000E-02  6.5000E-02  6.5000E-02  6.5000E-02  6.5000E-02  6.5000E-02  6.5000E-02   0.000       0.000    
        0.000    
  14    0.000       0.000       0.000       0.000       0.000       0.000       0.000       0.000       0.000       0.000    
        0.000       0.000       0.000       0.000       0.000       0.000       0.000       0.000       0.000       0.000    
        0.000       0.000       0.000       0.000       0.000       0.000       0.000       0.000       0.000       0.000    
        0.000       0.000       0.000       0.000       0.000       0.000       0.000       0.000       0.000       0.000    
        0.000      5.2000E-02  5.2000E-02  5.2000E-02  5.2000E-02  5.2000E-02  5.2000E-02  5.2000E-02  5.2000E-02  6.5000E-02
       6.5000E-02  6.5000E-02  6.5000E-02  6.5000E-02  6.5000E-02  6.5000E-02  6.5000E-02  6.5000E-02  6.5000E-02  6.5000E-02
       6.5000E-02  6.5000E-02  6.5000E-02  6.5000E-02  0.1300      0.1300      0.1300      6.5000E-02  6.5000E-02  6.5000E-02
       6.5000E-02  6.5000E-02  6.5000E-02  6.5000E-02  6.5000E-02  6.5000E-02  6.5000E-02  6.5000E-02  6.5000E-02   0.000    
        0.000    
  15    0.000       0.000       0.000       0.000       0.000       0.000       0.000       0.000       0.000       0.000    
        0.000       0.000       0.000       0.000       0.000       0.000       0.000       0.000       0.000       0.000    
        0.000       0.000       0.000       0.000       0.000       0.000       0.000       0.000       0.000       0.000    
        0.000       0.000       0.000       0.000       0.000       0.000       0.000       0.000       0.000       0.000    
       2.6000E-02  2.6000E-02  5.2000E-02  5.2000E-02  5.2000E-02  5.2000E-02  5.2000E-02  5.2000E-02  5.2000E-02  5.2000E-02
       5.2000E-02  6.5000E-02  6.5000E-02  6.5000E-02  6.5000E-02  6.5000E-02  6.5000E-02  6.5000E-02  6.5000E-02  6.5000E-02
       6.5000E-02  6.5000E-02  6.5000E-02  6.5000E-02  0.1300      0.1300      0.1300      0.1300      6.5000E-02  6.5000E-02
       6.5000E-02  6.5000E-02  6.5000E-02  6.5000E-02  6.5000E-02  6.5000E-02  6.5000E-02  6.5000E-02  6.5000E-02  6.5000E-02
        0.000    
  16    0.000       0.000       0.000       0.000       0.000       0.000       0.000       0.000       0.000       0.000    
        0.000       0.000       0.000       0.000       0.000       0.000       0.000       0.000       0.000       0.000    
        0.000       0.000       0.000       0.000       0.000       0.000       0.000       0.000       0.000       0.000    
        0.000       0.000       0.000       0.000       0.000       0.000       0.000       0.000       0.000      2.6000E-02
       2.6000E-02  2.6000E-02  5.2000E-02  5.2000E-02  5.2000E-02  5.2000E-02  5.2000E-02  5.2000E-02  5.2000E-02  5.2000E-02
       5.2000E-02  5.2000E-02  6.5000E-02  6.5000E-02  6.5000E-02  6.5000E-02  6.5000E-02  6.5000E-02  6.5000E-02  6.5000E-02
       6.5000E-02  6.5000E-02  6.5000E-02  6.5000E-02  0.1300      0.1300      0.1300      0.1300      0.1300      6.5000E-02
       6.5000E-02  6.5000E-02  6.5000E-02  6.5000E-02  6.5000E-02  6.5000E-02  6.5000E-02  6.5000E-02  6.5000E-02  6.5000E-02
        0.000    
  17    0.000       0.000       0.000       0.000       0.000       0.000       0.000       0.000       0.000       0.000    
        0.000       0.000       0.000       0.000       0.000       0.000       0.000       0.000       0.000       0.000    
        0.000       0.000       0.000       0.000       0.000       0.000       0.000       0.000       0.000       0.000    
        0.000       0.000       0.000       0.000       0.000       0.000       0.000       0.000       0.000      2.6000E-02
       2.6000E-02  2.6000E-02  2.6000E-02  5.2000E-02  5.2000E-02  5.2000E-02  5.2000E-02  5.2000E-02  5.2000E-02  5.2000E-02
       5.2000E-02  5.2000E-02  6.5000E-02  6.5000E-02  6.5000E-02  6.5000E-02  6.5000E-02  6.5000E-02  6.5000E-02  6.5000E-02
       6.5000E-02  6.5000E-02  6.5000E-02  6.5000E-02  0.1300      0.1300      0.1300      0.1300      0.1300      0.1300    
       0.1300      0.1300      0.1300      0.1300      0.1300      0.1300      6.5000E-02  6.5000E-02  6.5000E-02  6.5000E-02
        0.000    
  18    0.000       0.000       0.000       0.000       0.000       0.000       0.000       0.000       0.000       0.000    
        0.000       0.000       0.000       0.000       0.000       0.000       0.000       0.000       0.000       0.000    
        0.000       0.000       0.000       0.000       0.000       0.000       0.000       0.000       0.000       0.000    
        0.000       0.000       0.000       0.000       0.000       0.000       0.000       0.000       0.000      2.6000E-02
       2.6000E-02  2.6000E-02  2.6000E-02  5.2000E-02  5.2000E-02  5.2000E-02  5.2000E-02  5.2000E-02  5.2000E-02  5.2000E-02
       5.2000E-02  5.2000E-02  6.5000E-02  6.5000E-02  6.5000E-02  6.5000E-02  6.5000E-02  6.5000E-02  6.5000E-02  6.5000E-02
       6.5000E-02  6.5000E-02  6.5000E-02  6.5000E-02  0.1300      0.1300      0.1300      0.1300      0.1300      0.1300    
       0.1300      0.1300      0.1300      0.1300      0.1300      0.1300      0.1300      6.5000E-02  6.5000E-02  6.5000E-02
        0.000    
  19    0.000       0.000       0.000       0.000       0.000       0.000       0.000       0.000       0.000       0.000    
        0.000       0.000       0.000       0.000       0.000       0.000       0.000       0.000       0.000       0.000    
        0.000       0.000       0.000       0.000       0.000       0.000       0.000       0.000       0.000       0.000    
        0.000       0.000       0.000       0.000      2.6000E-02  2.6000E-02  2.6000E-02  2.6000E-02  2.6000E-02  2.6000E-02
       2.6000E-02  2.6000E-02  5.2000E-02  5.2000E-02  5.2000E-02  5.2000E-02  5.2000E-02  5.2000E-02  5.2000E-02  5.2000E-02
       5.2000E-02  5.2000E-02  6.5000E-02  6.5000E-02  6.5000E-02  6.5000E-02  6.5000E-02  6.5000E-02  6.5000E-02  6.5000E-02
       6.5000E-02  6.5000E-02  6.5000E-02  6.5000E-02  0.1300      0.1300      0.1300      0.1300      0.1300      0.1300    
       0.1300      0.1300      0.1300      0.1300      0.1300      0.1300      0.1300      6.5000E-02  6.5000E-02  6.5000E-02
       3.9000E-02
  20    0.000       0.000       0.000       0.000       0.000       0.000       0.000       0.000       0.000       0.000    
        0.000       0.000       0.000       0.000       0.000       0.000       0.000       0.000       0.000       0.000    
        0.000       0.000       0.000       0.000       0.000       0.000       0.000       0.000       0.000       0.000    
        0.000       0.000      2.6000E-02  2.6000E-02  2.6000E-02  2.6000E-02  2.6000E-02  2.6000E-02  2.6000E-02  2.6000E-02
       2.6000E-02  5.2000E-02  5.2000E-02  5.2000E-02  5.2000E-02  5.2000E-02  5.2000E-02  5.2000E-02  5.2000E-02  5.2000E-02
       5.2000E-02  5.2000E-02  6.5000E-02  6.5000E-02  6.5000E-02  6.5000E-02  6.5000E-02  6.5000E-02  6.5000E-02  6.5000E-02
       6.5000E-02  6.5000E-02  6.5000E-02  6.5000E-02  0.1300      0.1300      0.1300      0.1300      0.1300      0.1300    
       0.1300      0.1300      0.1300      0.1300      0.1300      0.1300      0.1300      6.5000E-02  6.5000E-02  6.5000E-02
       3.9000E-02
  21    0.000       0.000       0.000       0.000       0.000       0.000       0.000       0.000       0.000       0.000    
        0.000       0.000       0.000       0.000       0.000       0.000       0.000       0.000       0.000       0.000    
        0.000       0.000       0.000       0.000       0.000       0.000       0.000       0.000       0.000      2.6000E-02
       2.6000E-02  2.6000E-02  2.6000E-02  2.6000E-02  2.6000E-02  2.6000E-02  2.6000E-02  2.6000E-02  2.6000E-02  5.2000E-02
       5.2000E-02  5.2000E-02  5.2000E-02  5.2000E-02  5.2000E-02  5.2000E-02  5.2000E-02  5.2000E-02  5.2000E-02  5.2000E-02
       5.2000E-02  5.2000E-02  6.5000E-02  6.5000E-02  0.1300      6.5000E-02  6.5000E-02  6.5000E-02  6.5000E-02  6.5000E-02
       6.5000E-02  6.5000E-02  6.5000E-02  6.5000E-02  6.5000E-02  0.1300      0.1300      0.1300      0.1300      0.1300    
       0.1300      0.1300      0.1300      0.1300      0.1300      0.1300      0.1300      6.5000E-02  6.5000E-02  6.5000E-02
       3.9000E-02
  22    0.000       0.000       0.000       0.000       0.000       0.000       0.000       0.000       0.000       0.000    
        0.000       0.000       0.000       0.000       0.000       0.000       0.000       0.000       0.000       0.000    
        0.000       0.000       0.000       0.000       0.000       0.000      2.6000E-02  2.6000E-02  2.6000E-02  2.6000E-02
       2.6000E-02  2.6000E-02  2.6000E-02  2.6000E-02  2.6000E-02  2.6000E-02  2.6000E-02  2.6000E-02  5.2000E-02  5.2000E-02
       5.2000E-02  5.2000E-02  5.2000E-02  5.2000E-02  5.2000E-02  5.2000E-02  5.2000E-02  5.2000E-02  5.2000E-02  5.2000E-02
       5.2000E-02  6.5000E-02  6.5000E-02  6.5000E-02  0.1300      6.5000E-02  6.5000E-02  6.5000E-02  6.5000E-02  6.5000E-02
       6.5000E-02  6.5000E-02  6.5000E-02  6.5000E-02  6.5000E-02  6.5000E-02  0.1300      0.1300      0.1300      0.1300    
       0.1300      0.1300      0.1300      0.1300      0.1300      0.1300      0.1300      6.5000E-02  6.5000E-02  6.5000E-02
       3.9000E-02
  23    0.000       0.000       0.000       0.000       0.000       0.000       0.000       0.000       0.000       0.000    
        0.000       0.000       0.000       0.000       0.000       0.000       0.000       0.000       0.000       0.000    
        0.000       0.000       0.000       0.000      2.6000E-02  2.6000E-02  2.6000E-02  2.6000E-02  2.6000E-02  2.6000E-02
       2.6000E-02  2.6000E-02  2.6000E-02  2.6000E-02  2.6000E-02  5.2000E-02  5.2000E-02  5.2000E-02  5.2000E-02  5.2000E-02
       5.2000E-02  5.2000E-02  5.2000E-02  5.2000E-02  5.2000E-02  5.2000E-02  5.2000E-02  5.2000E-02  6.5000E-02  6.5000E-02
       6.5000E-02  6.5000E-02  6.5000E-02  6.5000E-02  0.1300      6.5000E-02  6.5000E-02  6.5000E-02  6.5000E-02  6.5000E-02
       6.5000E-02  6.5000E-02  6.5000E-02  6.5000E-02  6.5000E-02  6.5000E-02  6.5000E-02  6.5000E-02  0.1300      0.1300    
       0.1300      0.1300      0.1300      0.1300      0.1300      0.1300      0.1300      6.5000E-02  6.5000E-02  6.5000E-02
       3.9000E-02
  24    0.000       0.000       0.000       0.000       0.000       0.000       0.000       0.000       0.000       0.000    
        0.000       0.000       0.000       0.000       0.000       0.000       0.000       0.000       0.000       0.000    
        0.000       0.000      2.6000E-02  2.6000E-02  2.6000E-02  2.6000E-02  2.6000E-02  2.6000E-02  2.6000E-02  5.2000E-02
       5.2000E-02  5.2000E-02  5.2000E-02  5.2000E-02  5.2000E-02  5.2000E-02  5.2000E-02  5.2000E-02  5.2000E-02  5.2000E-02
       5.2000E-02  5.2000E-02  5.2000E-02  5.2000E-02  6.5000E-02  6.5000E-02  6.5000E-02  6.5000E-02  6.5000E-02  6.5000E-02
       6.5000E-02  6.5000E-02  6.5000E-02  6.5000E-02  0.1300      6.5000E-02  6.5000E-02  6.5000E-02  6.5000E-02  6.5000E-02
       6.5000E-02  6.5000E-02  6.5000E-02  6.5000E-02  6.5000E-02  6.5000E-02  6.5000E-02  6.5000E-02  6.5000E-02  0.1300    
       0.1300      0.1300      0.1300      0.1300      0.1300      0.1300      6.5000E-02  6.5000E-02  6.5000E-02  6.5000E-02
       3.9000E-02
  25    0.000       0.000       0.000       0.000       0.000       0.000       0.000       0.000       0.000       0.000    
        0.000       0.000       0.000       0.000       0.000       0.000       0.000       0.000       0.000       0.000    
       2.6000E-02  2.6000E-02  2.6000E-02  2.6000E-02  2.6000E-02  2.6000E-02  2.6000E-02  5.2000E-02  5.2000E-02  5.2000E-02
       5.2000E-02  5.2000E-02  5.2000E-02  5.2000E-02  5.2000E-02  5.2000E-02  5.2000E-02  5.2000E-02  5.2000E-02  5.2000E-02
       5.2000E-02  5.2000E-02  5.2000E-02  6.5000E-02  6.5000E-02  6.5000E-02  6.5000E-02  6.5000E-02  6.5000E-02  6.5000E-02
       6.5000E-02  6.5000E-02  6.5000E-02  6.5000E-02  0.1300      0.1300      6.5000E-02  6.5000E-02  6.5000E-02  6.5000E-02
       6.5000E-02  6.5000E-02  6.5000E-02  6.5000E-02  6.5000E-02  6.5000E-02  6.5000E-02  6.5000E-02  6.5000E-02  0.1300    
       0.1300      0.1300      0.1300      0.1300      0.1300      6.5000E-02  6.5000E-02  6.5000E-02  6.5000E-02  6.5000E-02
        0.000    
  26    0.000       0.000       0.000       0.000       0.000       0.000       0.000       0.000       0.000       0.000    
        0.000       0.000       0.000       0.000       0.000       0.000       0.000       0.000      2.6000E-02  2.6000E-02
       2.6000E-02  2.6000E-02  2.6000E-02  2.6000E-02  2.6000E-02  2.6000E-02  2.6000E-02  5.2000E-02  5.2000E-02  5.2000E-02
       5.2000E-02  5.2000E-02  5.2000E-02  5.2000E-02  5.2000E-02  5.2000E-02  5.2000E-02  5.2000E-02  5.2000E-02  5.2000E-02
       5.2000E-02  5.2000E-02  6.5000E-02  6.5000E-02  6.5000E-02  6.5000E-02  6.5000E-02  6.5000E-02  6.5000E-02  6.5000E-02
       6.5000E-02  6.5000E-02  6.5000E-02  6.5000E-02  0.1300      0.1300      6.5000E-02  6.5000E-02  6.5000E-02  6.5000E-02
       6.5000E-02  6.5000E-02  6.5000E-02  6.5000E-02  6.5000E-02  6.5000E-02  6.5000E-02  6.5000E-02  6.5000E-02  6.5000E-02
       0.1300      0.1300      0.1300      0.1300      0.1300      6.5000E-02  6.5000E-02  6.5000E-02  6.5000E-02   0.000    
        0.000    
  27    0.000       0.000       0.000       0.000       0.000       0.000       0.000       0.000       0.000       0.000    
        0.000       0.000       0.000       0.000       0.000       0.000       0.000      2.6000E-02  2.6000E-02  2.6000E-02
       2.6000E-02  2.6000E-02  5.2000E-02  5.2000E-02  5.2000E-02  5.2000E-02  5.2000E-02  5.2000E-02  5.2000E-02  5.2000E-02
       5.2000E-02  5.2000E-02  5.2000E-02  5.2000E-02  5.2000E-02  5.2000E-02  5.2000E-02  5.2000E-02  5.2000E-02  5.2000E-02
       5.2000E-02  6.5000E-02  6.5000E-02  6.5000E-02  6.5000E-02  6.5000E-02  6.5000E-02  6.5000E-02  6.5000E-02  6.5000E-02
       6.5000E-02  6.5000E-02  6.5000E-02  6.5000E-02  6.5000E-02  0.1300      6.5000E-02  6.5000E-02  6.5000E-02  6.5000E-02
       6.5000E-02  6.5000E-02  6.5000E-02  6.5000E-02  6.5000E-02  6.5000E-02  6.5000E-02  6.5000E-02  6.5000E-02  6.5000E-02
       6.5000E-02  0.1300      0.1300      0.1300      0.1300      6.5000E-02   0.000       0.000       0.000       0.000    
        0.000    
  28    0.000       0.000       0.000       0.000       0.000       0.000       0.000       0.000       0.000       0.000    
        0.000       0.000       0.000       0.000       0.000       0.000      2.6000E-02  2.6000E-02  2.6000E-02  2.6000E-02
       2.6000E-02  5.2000E-02  5.2000E-02  5.2000E-02  5.2000E-02  5.2000E-02  5.2000E-02  5.2000E-02  5.2000E-02  0.1300    
       0.1300      0.1300      0.1300      5.2000E-02  5.2000E-02  5.2000E-02  5.2000E-02  5.2000E-02  5.2000E-02  6.5000E-02
       6.5000E-02  6.5000E-02  6.5000E-02  6.5000E-02  6.5000E-02  6.5000E-02  6.5000E-02  6.5000E-02  6.5000E-02  6.5000E-02
       6.5000E-02  6.5000E-02  6.5000E-02  6.5000E-02  6.5000E-02  0.1300      0.1300      6.5000E-02  6.5000E-02  6.5000E-02
       6.5000E-02  6.5000E-02  6.5000E-02  6.5000E-02  6.5000E-02  6.5000E-02  6.5000E-02  6.5000E-02  6.5000E-02  6.5000E-02
       6.5000E-02  0.1300      0.1300      0.1300      0.1300      6.5000E-02   0.000       0.000       0.000       0.000    
        0.000    
  29    0.000       0.000       0.000       0.000       0.000       0.000       0.000       0.000       0.000       0.000    
        0.000      2.6000E-02  2.6000E-02  5.2000E-02  5.2000E-02  5.2000E-02  5.2000E-02  5.2000E-02  5.2000E-02  5.2000E-02
       5.2000E-02  5.2000E-02  5.2000E-02  5.2000E-02  5.2000E-02  5.2000E-02  5.2000E-02  5.2000E-02  5.2000E-02  0.1300    
       0.1300      0.1300      0.1300      0.1300      0.1300      5.2000E-02  5.2000E-02  5.2000E-02  5.2000E-02  6.5000E-02
       6.5000E-02  0.1300      0.1300      0.3900      0.3900      0.3900      0.3900      6.5000E-02  6.5000E-02  6.5000E-02
       6.5000E-02  6.5000E-02  6.5000E-02  6.5000E-02  6.5000E-02  0.1300      0.1300      6.5000E-02  6.5000E-02  6.5000E-02
       6.5000E-02  6.5000E-02  6.5000E-02  6.5000E-02  6.5000E-02  6.5000E-02  6.5000E-02  6.5000E-02  6.5000E-02  6.5000E-02
       6.5000E-02  0.1300      0.1300      0.1300      0.1300      6.5000E-02   0.000       0.000       0.000       0.000    
        0.000    
  30    0.000       0.000       0.000       0.000       0.000       0.000       0.000       0.000       0.000       0.000    
       2.6000E-02  2.6000E-02  5.2000E-02  5.2000E-02  5.2000E-02  5.2000E-02  0.1300      0.1300      0.1300      0.1300    
       0.1300      0.1300      0.1300      0.1300      0.1300      0.1300      0.1300      0.1300      0.1300      0.1300    
       0.1300      0.1300      0.1300      0.1300      0.1300      0.1300      0.1300      0.1300      0.1300      0.1300    
       0.1300      0.3900      0.3900      0.3900      0.3900      0.3900      0.3900      0.3900      0.1300      6.5000E-02
       6.5000E-02  6.5000E-02  6.5000E-02  6.5000E-02  6.5000E-02  0.1300      0.1300      6.5000E-02  6.5000E-02  6.5000E-02
       6.5000E-02  6.5000E-02  6.5000E-02  6.5000E-02  6.5000E-02  6.5000E-02  6.5000E-02  6.5000E-02  6.5000E-02  6.5000E-02
       6.5000E-02  0.1300      0.1300      0.3900      0.1300      6.5000E-02   0.000       0.000       0.000       0.000    
        0.000    
  31    0.000       0.000       0.000       0.000       0.000       0.000       0.000       0.000       0.000      2.6000E-02
       2.6000E-02  2.6000E-02  5.2000E-02  5.2000E-02  5.2000E-02  5.2000E-02  0.1300      0.1300      0.1300      0.1300    
       0.1300      0.1300      0.1300      0.1300      0.1300      0.1300      0.1300      0.3900      0.3900      0.3900    
       0.3900      0.3900      0.3900      0.3900      0.3900      0.3900      0.3900      0.3900      0.3900      0.3900    
       0.3900      0.3900      0.3900      0.3900      0.3900      0.3900      0.3900      0.3900      0.1300      0.3900    
       0.1300      6.5000E-02  6.5000E-02  6.5000E-02  6.5000E-02  0.1300      0.1300      6.5000E-02  6.5000E-02  6.5000E-02
       6.5000E-02  6.5000E-02  6.5000E-02  6.5000E-02  6.5000E-02  6.5000E-02  6.5000E-02  6.5000E-02  6.5000E-02  6.5000E-02
       6.5000E-02  0.1300      0.1300      0.3900      0.1300      6.5000E-02   0.000       0.000       0.000       0.000    
        0.000    
  32    0.000       0.000       0.000       0.000       0.000       0.000       0.000       0.000      2.6000E-02  2.6000E-02
       2.6000E-02  2.6000E-02  5.2000E-02  5.2000E-02  5.2000E-02  5.2000E-02  5.2000E-02  5.2000E-02  5.2000E-02  5.2000E-02
       5.2000E-02  5.2000E-02  5.2000E-02  5.2000E-02  5.2000E-02  5.2000E-02  6.5000E-02  6.5000E-02  6.5000E-02  6.5000E-02
       6.5000E-02  6.5000E-02  0.1300      0.1300      0.3900      0.3900      0.3900      0.3900      0.3900      0.3900    
       0.3900      0.3900      0.1300      0.1300      0.1300      0.1300      0.1300      0.3900      0.1300      0.3900    
       0.3900      0.1300      6.5000E-02  6.5000E-02  6.5000E-02  0.1300      0.1300      6.5000E-02  6.5000E-02  6.5000E-02
       6.5000E-02  6.5000E-02  6.5000E-02  6.5000E-02  6.5000E-02  6.5000E-02  6.5000E-02  6.5000E-02  6.5000E-02  6.5000E-02
       6.5000E-02  0.1300      0.1300      0.3900      0.1300      6.5000E-02   0.000       0.000       0.000       0.000    
        0.000    
  33    0.000       0.000       0.000       0.000       0.000       0.000       0.000      2.6000E-02  2.6000E-02  2.6000E-02
       2.6000E-02  2.6000E-02  5.2000E-02  5.2000E-02  5.2000E-02  5.2000E-02  5.2000E-02  5.2000E-02  5.2000E-02  5.2000E-02
       5.2000E-02  5.2000E-02  5.2000E-02  5.2000E-02  5.2000E-02  6.5000E-02  6.5000E-02  6.5000E-02  6.5000E-02  6.5000E-02
       6.5000E-02  6.5000E-02  0.1300      0.3900      0.3900      0.3900      0.3900      0.3900      0.3900      0.3900    
       0.3900      6.5000E-02  6.5000E-02  6.5000E-02  6.5000E-02  6.5000E-02  0.1300      0.1300      0.3900      0.3900    
       0.3900      0.3900      0.1300      0.1300      0.1300      0.1300      0.1300      0.1300      0.1300      0.1300    
       6.5000E-02  6.5000E-02  6.5000E-02  6.5000E-02  6.5000E-02  6.5000E-02  6.5000E-02  6.5000E-02  6.5000E-02  6.5000E-02
       6.5000E-02  0.1300      0.1300      0.3900      0.1300      6.5000E-02   0.000       0.000       0.000       0.000    
        0.000    
  34    0.000       0.000       0.000       0.000       0.000       0.000      2.6000E-02  2.6000E-02  2.6000E-02  2.6000E-02
       2.6000E-02  5.2000E-02  5.2000E-02  5.2000E-02  5.2000E-02  5.2000E-02  5.2000E-02  5.2000E-02  5.2000E-02  5.2000E-02
       5.2000E-02  5.2000E-02  6.5000E-02  6.5000E-02  6.5000E-02  6.5000E-02  6.5000E-02  6.5000E-02  6.5000E-02  6.5000E-02
       6.5000E-02  6.5000E-02  0.3900      0.3900      0.1300      0.1300      0.3900      0.3900      0.3900      0.3900    
       0.3900      6.5000E-02  6.5000E-02  6.5000E-02  6.5000E-02  6.5000E-02  0.1300      0.1300      0.3900      0.3900    
       0.3900      0.3900      0.3900      0.3900      0.3900      0.3900      0.3900      0.3900      0.3900      0.3900    
       6.5000E-02  6.5000E-02  6.5000E-02  6.5000E-02  6.5000E-02  6.5000E-02  6.5000E-02  6.5000E-02  6.5000E-02  6.5000E-02
       6.5000E-02  0.1300      0.1300      0.3900      0.1300      6.5000E-02   0.000       0.000       0.000       0.000    
        0.000    
  35    0.000       0.000       0.000       0.000       0.000      2.6000E-02  2.6000E-02  2.6000E-02  2.6000E-02  2.6000E-02
       2.6000E-02  5.2000E-02  5.2000E-02  5.2000E-02  5.2000E-02  5.2000E-02  5.2000E-02  5.2000E-02  6.5000E-02  6.5000E-02
       6.5000E-02  6.5000E-02  6.5000E-02  6.5000E-02  6.5000E-02  0.3900      0.3900      6.5000E-02  6.5000E-02  6.5000E-02
       6.5000E-02  0.3900      0.3900      0.1300      0.1300      0.1300      0.3900      0.3900      0.3900      0.3900    
       0.3900      6.5000E-02  6.5000E-02  6.5000E-02  6.5000E-02  6.5000E-02  0.1300      0.3900      0.3900      0.3900    
       0.3900      0.3900      0.3900      0.3900      0.3900      0.3900      0.3900      0.3900      0.3900      0.3900    
       6.5000E-02  6.5000E-02  6.5000E-02  6.5000E-02  6.5000E-02  6.5000E-02  6.5000E-02  6.5000E-02  6.5000E-02  6.5000E-02
       6.5000E-02  0.1300      0.1300      0.3900      0.1300      6.5000E-02   0.000       0.000       0.000       0.000    
        0.000    
  36    0.000       0.000       0.000       0.000       0.000      2.6000E-02  2.6000E-02  2.6000E-02  2.6000E-02  2.6000E-02
       5.2000E-02  5.2000E-02  5.2000E-02  5.2000E-02  0.1300      0.1300      0.1300      0.1300      0.1300      0.1300    
       0.1300      0.1300      0.1300      0.1300      0.3900      0.3900      0.3900      0.3900      0.3900      0.3900    
       0.3900      0.3900      0.1300      0.1300      0.1300      0.1300      0.3900      0.3900      0.3900      0.3900    
       0.3900      6.5000E-02  6.5000E-02  6.5000E-02  6.5000E-02  6.5000E-02  0.1300      0.3900      0.3900      6.5000E-02
       6.5000E-02  0.3900      0.3900      0.3900      0.3900      0.3900      0.3900      0.3900      0.3900      0.3900    
       0.1300      0.1300      0.1300      6.5000E-02  6.5000E-02  6.5000E-02  6.5000E-02  6.5000E-02  6.5000E-02  6.5000E-02
       6.5000E-02  0.1300      0.1300      0.1300      0.1300      6.5000E-02   0.000       0.000       0.000       0.000    
        0.000    
  37    0.000       0.000       0.000       0.000       0.000      2.6000E-02  2.6000E-02  2.6000E-02  2.6000E-02  5.2000E-02
       5.2000E-02  5.2000E-02  5.2000E-02  0.1300      0.1300      0.1300      0.1300      0.1300      0.1300      0.1300    
       0.1300      0.1300      0.3900      0.3900      0.3900      0.1300      0.1300      0.1300      0.1300      0.1300    
       0.1300      0.1300      0.1300      0.1300      0.1300      0.1300      0.3900      0.3900      0.3900      0.3900    
       6.5000E-02  6.5000E-02  6.5000E-02  6.5000E-02  6.5000E-02  6.5000E-02  0.3900      0.3900      6.5000E-02  6.5000E-02
       6.5000E-02  0.1300      0.1300      0.1300      0.1300      0.3900      0.3900      0.3900      0.3900      0.3900    
       0.3900      0.1300      0.1300      0.1300      6.5000E-02  6.5000E-02  0.1300      0.1300      6.5000E-02  6.5000E-02
       6.5000E-02  0.1300      0.1300      6.5000E-02  6.5000E-02  5.2000E-02   0.000       0.000       0.000       0.000    
        0.000    
  38    0.000       0.000       0.000       0.000       0.000      2.6000E-02  2.6000E-02  2.6000E-02  2.6000E-02  5.2000E-02
       5.2000E-02  5.2000E-02  5.2000E-02  0.1300      0.1300      0.1300      0.3900      0.3900      0.3900      0.3900    
       0.3900      0.3900      0.3900      0.3900      0.1300      0.1300      0.1300      0.1300      0.1300      0.1300    
       0.1300      0.1300      0.1300      0.1300      0.1300      0.1300      0.3900      0.3900      0.3900      0.1300    
       6.5000E-02  6.5000E-02  6.5000E-02  6.5000E-02  6.5000E-02  6.5000E-02  0.3900      0.3900      6.5000E-02  6.5000E-02
       6.5000E-02  6.5000E-02  0.1300      0.1300      0.1300      0.1300      0.1300      0.3900      0.3900      0.3900    
       0.3900      0.3900      0.3900      0.3900      0.1300      0.1300      0.1300      0.1300      0.1300      6.5000E-02
       6.5000E-02  0.1300      0.1300      6.5000E-02  6.5000E-02  5.2000E-02  2.6000E-02   0.000       0.000       0.000    
        0.000    
  39    0.000       0.000       0.000       0.000       0.000      2.6000E-02  2.6000E-02  2.6000E-02  5.2000E-02  5.2000E-02
       5.2000E-02  5.2000E-02  0.1300      0.1300      0.3900      0.3900      0.3900      0.1300      0.1300      0.1300    
       0.1300      0.1300      0.1300      0.1300      0.1300      0.1300      0.1300      0.1300      0.1300      0.1300    
       0.1300      0.1300      0.1300      0.1300      0.1300      0.1300      0.3900      0.3900      0.3900      0.1300    
       6.5000E-02  6.5000E-02  6.5000E-02  6.5000E-02  6.5000E-02  6.5000E-02  0.3900      0.3900      6.5000E-02  6.5000E-02
       6.5000E-02  6.5000E-02  0.1300      0.1300      0.1300      0.1300      0.1300      0.1300      0.1300      0.1300    
       0.3900      0.3900      0.3900      0.3900      0.3900      0.3900      0.3900      0.1300      0.1300      0.1300    
       0.1300      0.1300      0.1300      6.5000E-02  6.5000E-02  5.2000E-02  2.6000E-02   0.000       0.000       0.000    
        0.000    
  40    0.000       0.000       0.000       0.000      2.6000E-02  2.6000E-02  2.6000E-02  5.2000E-02  5.2000E-02  5.2000E-02
       5.2000E-02  0.3900      0.3900      0.3900      0.3900      0.3900      0.1300      0.1300      0.1300      0.1300    
       0.1300      0.1300      0.1300      0.1300      0.1300      0.1300      0.1300      0.1300      0.1300      0.1300    
       0.1300      0.1300      0.1300      0.1300      0.1300      0.1300      0.3900      0.3900      0.3900      0.1300    
       6.5000E-02  6.5000E-02  6.5000E-02  6.5000E-02  6.5000E-02  6.5000E-02  0.3900      0.3900      6.5000E-02  6.5000E-02
       6.5000E-02  6.5000E-02  6.5000E-02  5.2000E-02  5.2000E-02  5.2000E-02  5.2000E-02  5.2000E-02  5.2000E-02  6.5000E-02
       0.3900      0.3900      0.3900      0.3900      0.3900      0.3900      0.3900      0.3900      0.3900      0.1300    
       0.1300      0.1300      0.1300      6.5000E-02  6.5000E-02  5.2000E-02  2.6000E-02  2.6000E-02   0.000       0.000    
        0.000    
  41    0.000       0.000       0.000       0.000      2.6000E-02  2.6000E-02  5.2000E-02  5.2000E-02  5.2000E-02  5.2000E-02
       5.2000E-02  0.3900      0.3900      0.3900      0.3900      0.3900      0.1300      6.5000E-02  6.5000E-02  6.5000E-02
       6.5000E-02  6.5000E-02  6.5000E-02  6.5000E-02  6.5000E-02  6.5000E-02  6.5000E-02  6.5000E-02  6.5000E-02  6.5000E-02
       6.5000E-02  6.5000E-02  0.1300      0.1300      0.1300      0.1300      0.3900      0.3900      0.3900      6.5000E-02
       5.2000E-02  5.2000E-02  5.2000E-02  5.2000E-02  5.2000E-02  5.2000E-02  0.3900      0.3900      6.5000E-02  6.5000E-02
       6.5000E-02  6.5000E-02  6.5000E-02  5.2000E-02  5.2000E-02  5.2000E-02  5.2000E-02  5.2000E-02  5.2000E-02  6.5000E-02
       6.5000E-02  0.3900      0.3900      0.3900      0.1300      0.1300      0.3900      0.3900      0.3900      0.3900    
       0.3900      0.3900      0.3900      0.1300      6.5000E-02  5.2000E-02  2.6000E-02  2.6000E-02  2.6000E-02   0.000    
        0.000    
  42    0.000       0.000       0.000      2.6000E-02  2.6000E-02  2.6000E-02  5.2000E-02  5.2000E-02  5.2000E-02  0.3900    
       0.3900      0.3900      0.3900      0.1300      5.2000E-02  5.2000E-02  5.2000E-02  5.2000E-02  5.2000E-02  6.5000E-02
       6.5000E-02  6.5000E-02  6.5000E-02  6.5000E-02  6.5000E-02  6.5000E-02  6.5000E-02  6.5000E-02  6.5000E-02  6.5000E-02
       6.5000E-02  6.5000E-02  0.1300      0.1300      0.1300      0.1300      0.3900      0.3900      0.3900      6.5000E-02
       5.2000E-02  5.2000E-02  5.2000E-02  5.2000E-02  5.2000E-02  5.2000E-02  0.3900      0.3900      6.5000E-02  6.5000E-02
       6.5000E-02  6.5000E-02  6.5000E-02  5.2000E-02  5.2000E-02  5.2000E-02  5.2000E-02  5.2000E-02  5.2000E-02  6.5000E-02
       6.5000E-02  0.3900      0.3900      0.1300      0.1300      6.5000E-02  0.1300      0.1300      0.3900      0.3900    
       0.3900      0.3900      0.3900      0.1300      0.1300      0.1300      0.1300      5.2000E-02  5.2000E-02   0.000    
        0.000    
  43    0.000       0.000       0.000      2.6000E-02  2.6000E-02  5.2000E-02  5.2000E-02  5.2000E-02  5.2000E-02  0.3900    
       0.3900      0.3900      0.1300      5.2000E-02  5.2000E-02  5.2000E-02  5.2000E-02  5.2000E-02  5.2000E-02  5.2000E-02
       6.5000E-02  6.5000E-02  6.5000E-02  6.5000E-02  6.5000E-02  6.5000E-02  6.5000E-02  6.5000E-02  6.5000E-02  6.5000E-02
       6.5000E-02  6.5000E-02  0.1300      0.1300      0.1300      0.1300      0.3900      0.3900      0.3900      6.5000E-02
       5.2000E-02  5.2000E-02  5.2000E-02  5.2000E-02  5.2000E-02  5.2000E-02  0.3900      0.1300      6.5000E-02  6.5000E-02
       2.6000E-02  2.6000E-02  2.6000E-02  2.6000E-02  2.6000E-02  2.6000E-02  2.6000E-02  5.2000E-02  5.2000E-02  6.5000E-02
       6.5000E-02  0.3900      0.3900      0.1300      6.5000E-02  6.5000E-02  6.5000E-02  6.5000E-02  6.5000E-02  6.5000E-02
       6.5000E-02  0.3900      0.3900      0.3900      0.3900      0.3900      0.3900      0.3900      0.3900       1.170    
        0.000    
  44    0.000       0.000      2.6000E-02  2.6000E-02  5.2000E-02  5.2000E-02  5.2000E-02  5.2000E-02  0.1300      0.1300    
       0.1300      0.1300      5.2000E-02  5.2000E-02  5.2000E-02  5.2000E-02  5.2000E-02  5.2000E-02  5.2000E-02  5.2000E-02
       5.2000E-02  6.5000E-02  6.5000E-02  6.5000E-02  6.5000E-02  6.5000E-02  6.5000E-02  6.5000E-02  6.5000E-02  6.5000E-02
       6.5000E-02  6.5000E-02  0.1300      0.1300      0.1300      0.1300      0.3900      0.3900      0.3900      6.5000E-02
       5.2000E-02  5.2000E-02  5.2000E-02  5.2000E-02  5.2000E-02  5.2000E-02  0.3900      0.1300      6.5000E-02  6.5000E-02
       2.6000E-02  2.6000E-02  2.6000E-02  2.6000E-02  2.6000E-02  2.6000E-02  2.6000E-02  5.2000E-02  5.2000E-02  6.5000E-02
       6.5000E-02  0.3900      0.1300      6.5000E-02  6.5000E-02  6.5000E-02  6.5000E-02  6.5000E-02  6.5000E-02  6.5000E-02
       6.5000E-02  0.1300      0.3900      0.3900      0.3900      0.3900      0.3900      0.3900      0.3900       1.170    
        0.000    
  45    0.000      2.6000E-02  2.6000E-02  5.2000E-02  5.2000E-02  5.2000E-02  0.1300      0.1300      0.1300      0.1300    
       0.1300      0.1300      5.2000E-02  5.2000E-02  5.2000E-02  5.2000E-02  5.2000E-02  5.2000E-02  5.2000E-02  5.2000E-02
       5.2000E-02  5.2000E-02  6.5000E-02  6.5000E-02  6.5000E-02  6.5000E-02  6.5000E-02  6.5000E-02  6.5000E-02  6.5000E-02
       6.5000E-02  6.5000E-02  0.1300      0.1300      0.1300      0.1300      0.3900      0.3900      0.3900      0.3900    
       5.2000E-02  5.2000E-02  5.2000E-02  5.2000E-02  5.2000E-02  5.2000E-02  0.3900      0.1300      6.5000E-02  6.5000E-02
       2.6000E-02  2.6000E-02  2.6000E-02  2.6000E-02  2.6000E-02  2.6000E-02  2.6000E-02  5.2000E-02  5.2000E-02  6.5000E-02
       6.5000E-02  0.3900      0.1300      6.5000E-02  6.5000E-02  6.5000E-02  6.5000E-02  6.5000E-02  6.5000E-02  6.5000E-02
       6.5000E-02  0.1300      0.3900      0.3900      0.3900      0.3900      0.3900      0.3900      0.3900       1.170    
        0.000    
  46    0.000      2.6000E-02  5.2000E-02  5.2000E-02  5.2000E-02  0.1300      0.1300      0.1300      0.1300      5.2000E-02
       5.2000E-02  5.2000E-02  5.2000E-02  5.2000E-02  5.2000E-02  5.2000E-02  5.2000E-02  5.2000E-02  5.2000E-02  5.2000E-02
       5.2000E-02  5.2000E-02  6.5000E-02  6.5000E-02  6.5000E-02  6.5000E-02  6.5000E-02  6.5000E-02  6.5000E-02  6.5000E-02
       6.5000E-02  6.5000E-02  0.1300      0.1300      0.1300      0.3900      0.3900      0.3900      0.3900      0.3900    
       5.2000E-02  5.2000E-02  5.2000E-02  5.2000E-02  5.2000E-02  5.2000E-02  0.3900      0.3900      0.1300      6.5000E-02
       2.6000E-02  2.6000E-02  2.6000E-02  2.6000E-02  2.6000E-02  2.6000E-02  2.6000E-02  5.2000E-02  5.2000E-02  6.5000E-02
       6.5000E-02  0.1300      0.1300      6.5000E-02  6.5000E-02  6.5000E-02  6.5000E-02  6.5000E-02  6.5000E-02  6.5000E-02
       6.5000E-02  0.1300      0.1300      0.3900      0.3900      0.3900      0.1300      0.1300       0.000       0.000    
        0.000    
  47   2.6000E-02  2.6000E-02  5.2000E-02  5.2000E-02  5.2000E-02  5.2000E-02  5.2000E-02  5.2000E-02  5.2000E-02  5.2000E-02
       5.2000E-02  5.2000E-02  5.2000E-02  5.2000E-02  5.2000E-02  5.2000E-02  5.2000E-02  5.2000E-02  5.2000E-02  5.2000E-02
       5.2000E-02  5.2000E-02  5.2000E-02  6.5000E-02  6.5000E-02  6.5000E-02  6.5000E-02  6.5000E-02  6.5000E-02  6.5000E-02
       6.5000E-02  6.5000E-02  0.1300      0.1300      0.1300      0.3900      0.3900      0.3900      0.3900      0.3900    
       5.2000E-02  5.2000E-02  5.2000E-02  5.2000E-02  5.2000E-02  5.2000E-02  5.2000E-02  0.3900      0.1300      6.5000E-02
       2.6000E-02  2.6000E-02  2.6000E-02  2.6000E-02  2.6000E-02  2.6000E-02  2.6000E-02  5.2000E-02  5.2000E-02  6.5000E-02
       6.5000E-02  0.1300      0.1300      6.5000E-02  6.5000E-02  6.5000E-02  6.5000E-02  6.5000E-02  6.5000E-02  6.5000E-02
       6.5000E-02  0.1300      0.1300      0.3900      0.3900      0.1300      0.1300      5.2000E-02   0.000       0.000    
        0.000    
  48    0.000      2.6000E-02  2.6000E-02  5.2000E-02  5.2000E-02  5.2000E-02  5.2000E-02  5.2000E-02  5.2000E-02  5.2000E-02
       5.2000E-02  5.2000E-02  5.2000E-02  5.2000E-02  5.2000E-02  5.2000E-02  5.2000E-02  5.2000E-02  5.2000E-02  5.2000E-02
       5.2000E-02  5.2000E-02  5.2000E-02  6.5000E-02  6.5000E-02  6.5000E-02  6.5000E-02  6.5000E-02  6.5000E-02  6.5000E-02
       6.5000E-02  6.5000E-02  0.1300      0.1300      0.1300      0.3900      0.3900      0.3900      0.3900      6.5000E-02
       5.2000E-02  5.2000E-02  5.2000E-02  5.2000E-02  5.2000E-02  5.2000E-02  5.2000E-02  0.3900      0.3900      0.1300    
       2.6000E-02  2.6000E-02  2.6000E-02  2.6000E-02  2.6000E-02  2.6000E-02  2.6000E-02  5.2000E-02  5.2000E-02  6.5000E-02
       6.5000E-02  0.1300      0.1300      6.5000E-02  6.5000E-02  6.5000E-02  6.5000E-02  6.5000E-02  6.5000E-02  6.5000E-02
       6.5000E-02  0.1300      0.3900      0.3900      0.1300      6.5000E-02  5.2000E-02   0.000       0.000       0.000    
        0.000    
  49    0.000       0.000      2.6000E-02  2.6000E-02  2.6000E-02  2.6000E-02  2.6000E-02  2.6000E-02  2.6000E-02  2.6000E-02
       2.6000E-02  2.6000E-02  2.6000E-02  2.6000E-02  2.6000E-02  2.6000E-02  2.6000E-02  5.2000E-02  5.2000E-02  5.2000E-02
       5.2000E-02  5.2000E-02  5.2000E-02  5.2000E-02  5.2000E-02  6.5000E-02  6.5000E-02  6.5000E-02  6.5000E-02  6.5000E-02
       6.5000E-02  6.5000E-02  0.1300      0.1300      0.1300      0.3900      0.3900      0.3900      0.3900      6.5000E-02
       5.2000E-02  5.2000E-02  5.2000E-02  5.2000E-02  5.2000E-02  5.2000E-02  5.2000E-02  0.3900      0.3900      0.1300    
       2.6000E-02  2.6000E-02  2.6000E-02  2.6000E-02  2.6000E-02  2.6000E-02  2.6000E-02  5.2000E-02  5.2000E-02  6.5000E-02
       6.5000E-02  0.1300      0.1300      6.5000E-02  6.5000E-02  6.5000E-02  6.5000E-02  6.5000E-02  6.5000E-02  6.5000E-02
       0.1300      0.1300      0.3900      0.1300      6.5000E-02  6.5000E-02  5.2000E-02   0.000       0.000       0.000    
        0.000    
  50    0.000       0.000       0.000      2.6000E-02  2.6000E-02  2.6000E-02  2.6000E-02  2.6000E-02  2.6000E-02  2.6000E-02
       2.6000E-02  2.6000E-02  2.6000E-02  2.6000E-02  2.6000E-02  2.6000E-02  2.6000E-02  5.2000E-02  5.2000E-02  5.2000E-02
       5.2000E-02  5.2000E-02  5.2000E-02  5.2000E-02  5.2000E-02  5.2000E-02  6.5000E-02  6.5000E-02  6.5000E-02  6.5000E-02
       6.5000E-02  6.5000E-02  0.1300      0.1300      0.1300      0.3900      0.3900      0.3900      0.3900      6.5000E-02
       5.2000E-02  5.2000E-02  5.2000E-02  5.2000E-02  5.2000E-02  5.2000E-02  5.2000E-02  0.3900      0.3900      0.1300    
       2.6000E-02  2.6000E-02  2.6000E-02  2.6000E-02  2.6000E-02  2.6000E-02  2.6000E-02  5.2000E-02  5.2000E-02  6.5000E-02
       6.5000E-02  0.1300      0.1300      6.5000E-02  6.5000E-02  6.5000E-02  6.5000E-02  6.5000E-02  6.5000E-02  6.5000E-02
       0.1300      0.3900      0.3900      0.1300      6.5000E-02  6.5000E-02  5.2000E-02   0.000       0.000       0.000    
        0.000    
  51    0.000       0.000       0.000       0.000       0.000       0.000       0.000      2.6000E-02  2.6000E-02  2.6000E-02
       2.6000E-02  2.6000E-02  2.6000E-02   0.000      2.6000E-02  2.6000E-02  2.6000E-02  2.6000E-02  5.2000E-02  5.2000E-02
       5.2000E-02  5.2000E-02  5.2000E-02  5.2000E-02  5.2000E-02  5.2000E-02  5.2000E-02  6.5000E-02  6.5000E-02  6.5000E-02
       6.5000E-02  6.5000E-02  0.1300      0.1300      0.1300      0.3900      0.3900      0.3900      0.3900      6.5000E-02
       5.2000E-02  2.6000E-02  2.6000E-02  2.6000E-02  2.6000E-02  2.6000E-02  5.2000E-02  0.3900      0.1300      0.1300    
       2.6000E-02  2.6000E-02  2.6000E-02  2.6000E-02  2.6000E-02  2.6000E-02  2.6000E-02  5.2000E-02  5.2000E-02  6.5000E-02
       6.5000E-02  0.1300      0.1300      6.5000E-02  6.5000E-02  6.5000E-02  6.5000E-02  6.5000E-02  6.5000E-02  6.5000E-02
       0.3900      0.3900      0.1300      0.1300      6.5000E-02  6.5000E-02   0.000       0.000       0.000       0.000    
        0.000    
  52    0.000       0.000       0.000       0.000       0.000       0.000       0.000       0.000       0.000       0.000    
        0.000       0.000       0.000       0.000       0.000      2.6000E-02  2.6000E-02  2.6000E-02  5.2000E-02  5.2000E-02
       5.2000E-02  5.2000E-02  5.2000E-02  5.2000E-02  5.2000E-02  5.2000E-02  5.2000E-02  5.2000E-02  6.5000E-02  6.5000E-02
       6.5000E-02  6.5000E-02  0.1300      0.1300      0.1300      0.3900      0.3900      0.3900      6.5000E-02  6.5000E-02
       5.2000E-02  2.6000E-02  2.6000E-02  2.6000E-02  2.6000E-02  2.6000E-02  5.2000E-02  0.1300      0.1300      0.1300    
       2.6000E-02  2.6000E-02  2.6000E-02  2.6000E-02  2.6000E-02  2.6000E-02  2.6000E-02  5.2000E-02  5.2000E-02  6.5000E-02
       0.1300      0.1300      0.1300      6.5000E-02  6.5000E-02  6.5000E-02  6.5000E-02  6.5000E-02  6.5000E-02  6.5000E-02
       0.3900      0.3900      0.1300      0.1300      6.5000E-02  6.5000E-02   0.000       0.000       0.000       0.000    
        0.000    
  53    0.000       0.000       0.000       0.000       0.000       0.000       0.000       0.000       0.000       0.000    
        0.000       0.000       0.000       0.000       0.000       0.000       0.000      2.6000E-02  2.6000E-02  5.2000E-02
       5.2000E-02  5.2000E-02  5.2000E-02  5.2000E-02  5.2000E-02  5.2000E-02  5.2000E-02  5.2000E-02  6.5000E-02  6.5000E-02
       6.5000E-02  6.5000E-02  0.1300      0.1300      0.1300      0.3900      0.3900      0.3900      6.5000E-02  6.5000E-02
       5.2000E-02  2.6000E-02  2.6000E-02  2.6000E-02  2.6000E-02  2.6000E-02  5.2000E-02  0.1300      0.1300      0.1300    
       2.6000E-02  2.6000E-02  2.6000E-02  2.6000E-02  2.6000E-02  2.6000E-02  2.6000E-02  5.2000E-02  5.2000E-02  6.5000E-02
       0.1300      0.1300      0.1300      6.5000E-02  6.5000E-02  6.5000E-02  6.5000E-02  6.5000E-02  6.5000E-02  6.5000E-02
       0.3900      0.3900      0.1300      0.1300      6.5000E-02  6.5000E-02   0.000       0.000       0.000       0.000    
        0.000    
  54    0.000       0.000       0.000       0.000       0.000       0.000       0.000       0.000       0.000       0.000    
        0.000       0.000       0.000       0.000       0.000       0.000       0.000      2.6000E-02  2.6000E-02  2.6000E-02
       5.2000E-02  5.2000E-02  5.2000E-02  5.2000E-02  5.2000E-02  5.2000E-02  5.2000E-02  5.2000E-02  5.2000E-02  6.5000E-02
       6.5000E-02  6.5000E-02  0.1300      0.1300      0.1300      0.3900      0.3900      0.3900      6.5000E-02  6.5000E-02
       5.2000E-02  2.6000E-02  2.6000E-02  2.6000E-02  2.6000E-02  2.6000E-02  5.2000E-02  0.1300      0.1300      0.1300    
       2.6000E-02  2.6000E-02  2.6000E-02  2.6000E-02  2.6000E-02  2.6000E-02  2.6000E-02  5.2000E-02  5.2000E-02  6.5000E-02
       0.1300      0.1300      0.1300      6.5000E-02  6.5000E-02  6.5000E-02  6.5000E-02  6.5000E-02  6.5000E-02  0.1300    
       0.3900      0.3900      0.1300      0.1300      6.5000E-02  6.5000E-02   0.000       0.000       0.000       0.000    
        0.000    
  55    0.000       0.000       0.000       0.000       0.000       0.000       0.000       0.000       0.000       0.000    
        0.000       0.000       0.000       0.000       0.000       0.000       0.000       0.000      2.6000E-02  2.6000E-02
       2.6000E-02  5.2000E-02  5.2000E-02  5.2000E-02  5.2000E-02  5.2000E-02  5.2000E-02  5.2000E-02  5.2000E-02  6.5000E-02
       6.5000E-02  6.5000E-02  0.1300      0.1300      0.1300      0.3900      0.3900      0.3900      6.5000E-02  5.2000E-02
       5.2000E-02  2.6000E-02  2.6000E-02  2.6000E-02  2.6000E-02  2.6000E-02  5.2000E-02  0.1300      0.1300      0.1300    
       2.6000E-02  2.6000E-02  2.6000E-02  2.6000E-02  2.6000E-02  2.6000E-02  2.6000E-02  5.2000E-02  5.2000E-02  6.5000E-02
       0.1300      0.1300      0.1300      6.5000E-02  6.5000E-02  6.5000E-02  6.5000E-02  6.5000E-02  6.5000E-02  0.1300    
       0.3900      0.3900      0.1300      0.1300      6.5000E-02  6.5000E-02   0.000       0.000       0.000       0.000    
        0.000    
  56    0.000       0.000       0.000       0.000       0.000       0.000       0.000       0.000       0.000       0.000    
        0.000       0.000       0.000       0.000       0.000       0.000       0.000       0.000       0.000       0.000    
        0.000      5.2000E-02  5.2000E-02  5.2000E-02  5.2000E-02  5.2000E-02  5.2000E-02  5.2000E-02  5.2000E-02  6.5000E-02
       6.5000E-02  6.5000E-02  0.1300      0.1300      0.1300      0.3900      0.3900      0.3900      6.5000E-02  5.2000E-02
       5.2000E-02  2.6000E-02  2.6000E-02  2.6000E-02  2.6000E-02  2.6000E-02  5.2000E-02  0.1300      0.1300      0.1300    
       6.5000E-02  5.2000E-02  2.6000E-02  2.6000E-02  2.6000E-02  2.6000E-02  5.2000E-02  5.2000E-02  5.2000E-02  6.5000E-02
       0.1300      0.1300      0.1300      6.5000E-02  6.5000E-02  6.5000E-02  6.5000E-02  6.5000E-02  6.5000E-02  0.1300    
       0.3900      0.1300      0.1300      0.1300      6.5000E-02  6.5000E-02   0.000       0.000       0.000       0.000    
        0.000    
  57    0.000       0.000       0.000       0.000       0.000       0.000       0.000       0.000       0.000       0.000    
        0.000       0.000       0.000       0.000       0.000       0.000       0.000       0.000       0.000       0.000    
        0.000       0.000      5.2000E-02  5.2000E-02  5.2000E-02  5.2000E-02  5.2000E-02  5.2000E-02  5.2000E-02  5.2000E-02
       6.5000E-02  6.5000E-02  0.1300      0.1300      0.1300      0.3900      0.3900      0.1300      6.5000E-02  5.2000E-02
       5.2000E-02  2.6000E-02  2.6000E-02  2.6000E-02  2.6000E-02  2.6000E-02  5.2000E-02  5.2000E-02  5.2000E-02  0.1300    
       6.5000E-02  5.2000E-02  2.6000E-02  2.6000E-02  2.6000E-02  2.6000E-02  5.2000E-02  5.2000E-02  5.2000E-02  6.5000E-02
       0.1300      0.1300      6.5000E-02  6.5000E-02  5.2000E-02  5.2000E-02  6.5000E-02  6.5000E-02  6.5000E-02  0.1300    
       0.1300      6.5000E-02  0.1300      0.1300      6.5000E-02  6.5000E-02   0.000       0.000       0.000       0.000    
        0.000    
  58    0.000       0.000       0.000       0.000       0.000       0.000       0.000       0.000       0.000       0.000    
        0.000       0.000       0.000       0.000       0.000       0.000       0.000       0.000       0.000       0.000    
        0.000       0.000       0.000      5.2000E-02  5.2000E-02  5.2000E-02  5.2000E-02  5.2000E-02  5.2000E-02  5.2000E-02
       6.5000E-02  6.5000E-02  0.1300      0.1300      0.1300      0.3900      0.3900      0.1300      6.5000E-02  5.2000E-02
       5.2000E-02  2.6000E-02  2.6000E-02  2.6000E-02  2.6000E-02  2.6000E-02  2.6000E-02  5.2000E-02  5.2000E-02  0.1300    
       6.5000E-02  5.2000E-02  2.6000E-02  2.6000E-02  2.6000E-02  2.6000E-02  5.2000E-02  5.2000E-02  5.2000E-02  6.5000E-02
       0.1300      6.5000E-02  6.5000E-02  6.5000E-02  5.2000E-02  5.2000E-02  5.2000E-02  6.5000E-02  6.5000E-02  0.1300    
       0.1300      6.5000E-02  0.1300      0.1300      6.5000E-02  6.5000E-02   0.000       0.000       0.000       0.000    
        0.000    
  59    0.000       0.000       0.000       0.000       0.000       0.000       0.000       0.000       0.000       0.000    
        0.000       0.000       0.000       0.000       0.000       0.000       0.000       0.000       0.000       0.000    
        0.000       0.000       0.000       0.000       0.000       0.000       0.000       0.000       0.000      5.2000E-02
       5.2000E-02  6.5000E-02  0.1300      0.1300      0.1300      0.3900      0.3900      0.1300      6.5000E-02  5.2000E-02
       5.2000E-02  2.6000E-02  2.6000E-02  2.6000E-02  2.6000E-02  2.6000E-02  2.6000E-02  5.2000E-02  5.2000E-02  0.1300    
       0.1300      5.2000E-02  5.2000E-02  5.2000E-02  5.2000E-02  5.2000E-02  5.2000E-02  5.2000E-02  5.2000E-02  6.5000E-02
       6.5000E-02  6.5000E-02  6.5000E-02  6.5000E-02  5.2000E-02  5.2000E-02  5.2000E-02  6.5000E-02  6.5000E-02  0.1300    
       0.1300      6.5000E-02  0.1300      0.1300      6.5000E-02  6.5000E-02   0.000       0.000       0.000       0.000    
        0.000    
  60    0.000       0.000       0.000       0.000       0.000       0.000       0.000       0.000       0.000       0.000    
        0.000       0.000       0.000       0.000       0.000       0.000       0.000       0.000       0.000       0.000    
        0.000       0.000       0.000       0.000       0.000       0.000       0.000       0.000       0.000       0.000    
        0.000      6.5000E-02  0.1300      0.1300      0.1300      0.3900      0.3900      0.1300      5.2000E-02  5.2000E-02
       5.2000E-02  2.6000E-02  2.6000E-02  2.6000E-02  2.6000E-02  2.6000E-02  2.6000E-02  5.2000E-02  5.2000E-02  5.2000E-02
       0.1300      5.2000E-02  5.2000E-02  5.2000E-02  5.2000E-02  5.2000E-02  5.2000E-02  5.2000E-02  6.5000E-02  6.5000E-02
       6.5000E-02  5.2000E-02  5.2000E-02  5.2000E-02  5.2000E-02  5.2000E-02  5.2000E-02  6.5000E-02  0.1300      0.1300    
       0.1300      6.5000E-02  6.5000E-02  6.5000E-02  6.5000E-02  6.5000E-02   0.000       0.000       0.000       0.000    
        0.000    
  61    0.000       0.000       0.000       0.000       0.000       0.000       0.000       0.000       0.000       0.000    
        0.000       0.000       0.000       0.000       0.000       0.000       0.000       0.000       0.000       0.000    
        0.000       0.000       0.000       0.000       0.000       0.000       0.000       0.000       0.000       0.000    
        0.000       0.000      6.5000E-02  6.5000E-02  6.5000E-02  6.5000E-02  6.5000E-02  6.5000E-02  5.2000E-02  5.2000E-02
       5.2000E-02  2.6000E-02  2.6000E-02  2.6000E-02  2.6000E-02  2.6000E-02  2.6000E-02  2.6000E-02  5.2000E-02  5.2000E-02
       0.1300      0.1300      5.2000E-02  5.2000E-02  5.2000E-02  5.2000E-02  5.2000E-02  5.2000E-02  5.2000E-02  5.2000E-02
       5.2000E-02  5.2000E-02  5.2000E-02  5.2000E-02  5.2000E-02  5.2000E-02  5.2000E-02  6.5000E-02  0.1300      6.5000E-02
       0.1300      6.5000E-02  6.5000E-02  6.5000E-02  6.5000E-02  6.5000E-02   0.000       0.000       0.000       0.000    
        0.000    
  62    0.000       0.000       0.000       0.000       0.000       0.000       0.000       0.000       0.000       0.000    
        0.000       0.000       0.000       0.000       0.000       0.000       0.000       0.000       0.000       0.000    
        0.000       0.000       0.000       0.000       0.000       0.000       0.000       0.000       0.000       0.000    
        0.000       0.000       0.000      6.5000E-02  6.5000E-02   0.000       0.000       0.000       0.000       0.000    
        0.000       0.000       0.000       0.000       0.000       0.000      2.6000E-02  2.6000E-02  5.2000E-02  5.2000E-02
       6.5000E-02  0.1300      5.2000E-02  5.2000E-02  5.2000E-02  5.2000E-02  5.2000E-02  5.2000E-02  5.2000E-02  5.2000E-02
       5.2000E-02  5.2000E-02  5.2000E-02  5.2000E-02  5.2000E-02  5.2000E-02  6.5000E-02  0.1300      0.1300      6.5000E-02
       6.5000E-02  6.5000E-02  6.5000E-02  6.5000E-02  6.5000E-02  6.5000E-02   0.000       0.000       0.000       0.000    
        0.000    
  63    0.000       0.000       0.000       0.000       0.000       0.000       0.000       0.000       0.000       0.000    
        0.000       0.000       0.000       0.000       0.000       0.000       0.000       0.000       0.000       0.000    
        0.000       0.000       0.000       0.000       0.000       0.000       0.000       0.000       0.000       0.000    
        0.000       0.000       0.000       0.000       0.000       0.000       0.000       0.000       0.000       0.000    
        0.000       0.000       0.000       0.000       0.000       0.000      2.6000E-02  2.6000E-02  2.6000E-02  5.2000E-02
       6.5000E-02  6.5000E-02  5.2000E-02  5.2000E-02  5.2000E-02  5.2000E-02  5.2000E-02  5.2000E-02  5.2000E-02  5.2000E-02
       5.2000E-02  5.2000E-02  5.2000E-02  5.2000E-02  5.2000E-02  5.2000E-02  6.5000E-02  0.1300      0.1300      6.5000E-02
       6.5000E-02  6.5000E-02  6.5000E-02  6.5000E-02  6.5000E-02  6.5000E-02   0.000       0.000       0.000       0.000    
        0.000    
  64    0.000       0.000       0.000       0.000       0.000       0.000       0.000       0.000       0.000       0.000    
        0.000       0.000       0.000       0.000       0.000       0.000       0.000       0.000       0.000       0.000    
        0.000       0.000       0.000       0.000       0.000       0.000       0.000       0.000       0.000       0.000    
        0.000       0.000       0.000       0.000       0.000       0.000       0.000       0.000       0.000       0.000    
        0.000       0.000       0.000       0.000       0.000       0.000      2.6000E-02  2.6000E-02  2.6000E-02  5.2000E-02
       6.5000E-02  6.5000E-02  5.2000E-02  5.2000E-02  5.2000E-02  5.2000E-02  5.2000E-02  5.2000E-02  5.2000E-02  5.2000E-02
       5.2000E-02  5.2000E-02  5.2000E-02  5.2000E-02  5.2000E-02  5.2000E-02  6.5000E-02  0.1300      6.5000E-02  6.5000E-02
       6.5000E-02  6.5000E-02  6.5000E-02  6.5000E-02  6.5000E-02  6.5000E-02   0.000       0.000       0.000       0.000    
        0.000    
  65    0.000       0.000       0.000       0.000       0.000       0.000       0.000       0.000       0.000       0.000    
        0.000       0.000       0.000       0.000       0.000       0.000       0.000       0.000       0.000       0.000    
        0.000       0.000       0.000       0.000       0.000       0.000       0.000       0.000       0.000       0.000    
        0.000       0.000       0.000       0.000       0.000       0.000       0.000       0.000       0.000       0.000    
        0.000       0.000       0.000       0.000       0.000       0.000       0.000       0.000      2.6000E-02  2.6000E-02
       6.5000E-02  6.5000E-02  5.2000E-02  5.2000E-02  5.2000E-02  5.2000E-02  5.2000E-02  5.2000E-02  5.2000E-02  5.2000E-02
       5.2000E-02  5.2000E-02  5.2000E-02  5.2000E-02  5.2000E-02  6.5000E-02  6.5000E-02  6.5000E-02  6.5000E-02  6.5000E-02
       6.5000E-02  6.5000E-02  6.5000E-02  6.5000E-02  6.5000E-02  6.5000E-02   0.000       0.000       0.000       0.000    
        0.000    
  66    0.000       0.000       0.000       0.000       0.000       0.000       0.000       0.000       0.000       0.000    
        0.000       0.000       0.000       0.000       0.000       0.000       0.000       0.000       0.000       0.000    
        0.000       0.000       0.000       0.000       0.000       0.000       0.000       0.000       0.000       0.000    
        0.000       0.000       0.000       0.000       0.000       0.000       0.000       0.000       0.000       0.000    
        0.000       0.000       0.000       0.000       0.000       0.000       0.000       0.000       0.000      2.6000E-02
       2.6000E-02  5.2000E-02  5.2000E-02  5.2000E-02  5.2000E-02  5.2000E-02  5.2000E-02  5.2000E-02  5.2000E-02  5.2000E-02
       5.2000E-02  5.2000E-02  5.2000E-02  5.2000E-02  5.2000E-02  6.5000E-02  6.5000E-02  6.5000E-02  6.5000E-02  6.5000E-02
       6.5000E-02  6.5000E-02  6.5000E-02  6.5000E-02  6.5000E-02  5.2000E-02   0.000       0.000       0.000       0.000    
        0.000    
  67    0.000       0.000       0.000       0.000       0.000       0.000       0.000       0.000       0.000       0.000    
        0.000       0.000       0.000       0.000       0.000       0.000       0.000       0.000       0.000       0.000    
        0.000       0.000       0.000       0.000       0.000       0.000       0.000       0.000       0.000       0.000    
        0.000       0.000       0.000       0.000       0.000       0.000       0.000       0.000       0.000       0.000    
        0.000       0.000       0.000       0.000       0.000       0.000       0.000       0.000       0.000      2.6000E-02
       2.6000E-02  5.2000E-02  5.2000E-02  5.2000E-02  2.6000E-02  2.6000E-02  2.6000E-02  2.6000E-02  2.6000E-02  2.6000E-02
       2.6000E-02  5.2000E-02  5.2000E-02  5.2000E-02  5.2000E-02  6.5000E-02  6.5000E-02  6.5000E-02  6.5000E-02  6.5000E-02
       6.5000E-02  6.5000E-02  6.5000E-02  6.5000E-02  5.2000E-02  5.2000E-02   0.000       0.000       0.000       0.000    
        0.000    
  68    0.000       0.000       0.000       0.000       0.000       0.000       0.000       0.000       0.000       0.000    
        0.000       0.000       0.000       0.000       0.000       0.000       0.000       0.000       0.000       0.000    
        0.000       0.000       0.000       0.000       0.000       0.000       0.000       0.000       0.000       0.000    
        0.000       0.000       0.000       0.000       0.000       0.000       0.000       0.000       0.000       0.000    
        0.000       0.000       0.000       0.000       0.000       0.000       0.000       0.000       0.000       0.000    
       2.6000E-02  5.2000E-02  5.2000E-02  5.2000E-02  2.6000E-02  2.6000E-02  2.6000E-02  2.6000E-02  2.6000E-02  2.6000E-02
       2.6000E-02  5.2000E-02  5.2000E-02  5.2000E-02  5.2000E-02  6.5000E-02  6.5000E-02  6.5000E-02  6.5000E-02  6.5000E-02
       6.5000E-02  6.5000E-02  6.5000E-02  6.5000E-02  5.2000E-02  5.2000E-02   0.000       0.000       0.000       0.000    
        0.000    
  69    0.000       0.000       0.000       0.000       0.000       0.000       0.000       0.000       0.000       0.000    
        0.000       0.000       0.000       0.000       0.000       0.000       0.000       0.000       0.000       0.000    
        0.000       0.000       0.000       0.000       0.000       0.000       0.000       0.000       0.000       0.000    
        0.000       0.000       0.000       0.000       0.000       0.000       0.000       0.000       0.000       0.000    
        0.000       0.000       0.000       0.000       0.000       0.000       0.000       0.000       0.000       0.000    
        0.000       0.000       0.000       0.000       0.000       0.000      2.6000E-02  2.6000E-02  2.6000E-02  2.6000E-02
       2.6000E-02  5.2000E-02  5.2000E-02  5.2000E-02  6.5000E-02  6.5000E-02  6.5000E-02  6.5000E-02  6.5000E-02  6.5000E-02
       6.5000E-02  6.5000E-02  6.5000E-02  6.5000E-02  5.2000E-02  5.2000E-02   0.000       0.000       0.000       0.000    
        0.000    
  70    0.000       0.000       0.000       0.000       0.000       0.000       0.000       0.000       0.000       0.000    
        0.000       0.000       0.000       0.000       0.000       0.000       0.000       0.000       0.000       0.000    
        0.000       0.000       0.000       0.000       0.000       0.000       0.000       0.000       0.000       0.000    
        0.000       0.000       0.000       0.000       0.000       0.000       0.000       0.000       0.000       0.000    
        0.000       0.000       0.000       0.000       0.000       0.000       0.000       0.000       0.000       0.000    
        0.000       0.000       0.000       0.000       0.000       0.000      2.6000E-02  2.6000E-02  2.6000E-02  2.6000E-02
       2.6000E-02  6.5000E-02  6.5000E-02  6.5000E-02  6.5000E-02  6.5000E-02  6.5000E-02  6.5000E-02  6.5000E-02  6.5000E-02
       6.5000E-02  6.5000E-02  6.5000E-02  6.5000E-02  5.2000E-02   0.000       0.000       0.000       0.000       0.000    
        0.000    
  71    0.000       0.000       0.000       0.000       0.000       0.000       0.000       0.000       0.000       0.000    
        0.000       0.000       0.000       0.000       0.000       0.000       0.000       0.000       0.000       0.000    
        0.000       0.000       0.000       0.000       0.000       0.000       0.000       0.000       0.000       0.000    
        0.000       0.000       0.000       0.000       0.000       0.000       0.000       0.000       0.000       0.000    
        0.000       0.000       0.000       0.000       0.000       0.000       0.000       0.000       0.000       0.000    
        0.000       0.000       0.000       0.000       0.000       0.000       0.000      2.6000E-02  2.6000E-02  5.2000E-02
       6.5000E-02  6.5000E-02  6.5000E-02  6.5000E-02   0.000       0.000       0.000       0.000       0.000       0.000    
        0.000       0.000       0.000       0.000      5.2000E-02   0.000       0.000       0.000       0.000       0.000    
        0.000    
  72    0.000       0.000       0.000       0.000       0.000       0.000       0.000       0.000       0.000       0.000    
        0.000       0.000       0.000       0.000       0.000       0.000       0.000       0.000       0.000       0.000    
        0.000       0.000       0.000       0.000       0.000       0.000       0.000       0.000       0.000       0.000    
        0.000       0.000       0.000       0.000       0.000       0.000       0.000       0.000       0.000       0.000    
        0.000       0.000       0.000       0.000       0.000       0.000       0.000       0.000       0.000       0.000    
        0.000       0.000       0.000       0.000       0.000       0.000       0.000       0.000      2.6000E-02  5.2000E-02
       6.5000E-02  6.5000E-02   0.000       0.000       0.000       0.000       0.000       0.000       0.000       0.000    
        0.000       0.000       0.000       0.000       0.000       0.000       0.000       0.000       0.000       0.000    
        0.000    
  73    0.000       0.000       0.000       0.000       0.000       0.000       0.000       0.000       0.000       0.000    
        0.000       0.000       0.000       0.000       0.000       0.000       0.000       0.000       0.000       0.000    
        0.000       0.000       0.000       0.000       0.000       0.000       0.000       0.000       0.000       0.000    
        0.000       0.000       0.000       0.000       0.000       0.000       0.000       0.000       0.000       0.000    
        0.000       0.000       0.000       0.000       0.000       0.000       0.000       0.000       0.000       0.000    
        0.000       0.000       0.000       0.000       0.000       0.000       0.000       0.000      2.6000E-02  5.2000E-02
       6.5000E-02   0.000       0.000       0.000       0.000       0.000       0.000       0.000       0.000       0.000    
        0.000       0.000       0.000       0.000       0.000       0.000       0.000       0.000       0.000       0.000    
        0.000    

         SPECIFIC STORAGE =  2.000000E-06 FOR LAYER   1



                     SPECIFIC YIELD FOR LAYER   1
 READING ON UNIT   12 WITH FORMAT: (FREE)              

            1           2           3           4           5           6           7           8           9          10
           11          12          13          14          15          16          17          18          19          20
           21          22          23          24          25          26          27          28          29          30
           31          32          33          34          35          36          37          38          39          40
           41          42          43          44          45          46          47          48          49          50
           51          52          53          54          55          56          57          58          59          60
           61          62          63          64          65          66          67          68          69          70
           71          72          73          74          75          76          77          78          79          80
           81
 ........................................................................................................................
   1    0.000       0.000       0.000       0.000       0.000       0.000       0.000       0.000       0.000       0.000    
        0.000       0.000       0.000       0.000       0.000       0.000       0.000       0.000       0.000       0.000    
        0.000       0.000       0.000       0.000       0.000       0.000       0.000       0.000       0.000       0.000    
        0.000       0.000       0.000       0.000       0.000       0.000       0.000       0.000       0.000       0.000    
        0.000       0.000       0.000       0.000       0.000       0.000       0.000       0.000       0.000       0.000    
        0.000       0.000       0.000       0.000       0.000       0.000       0.000       0.000       0.000       0.000    
        0.000       0.000       0.000      9.0000E-02  9.0000E-02   0.000       0.000       0.000       0.000       0.000    
        0.000       0.000       0.000       0.000       0.000       0.000       0.000       0.000       0.000       0.000    
        0.000    
   2    0.000       0.000       0.000       0.000       0.000       0.000       0.000       0.000       0.000       0.000    
        0.000       0.000       0.000       0.000       0.000       0.000       0.000       0.000       0.000       0.000    
        0.000       0.000       0.000       0.000       0.000       0.000       0.000       0.000       0.000       0.000    
        0.000       0.000       0.000       0.000       0.000       0.000       0.000       0.000       0.000       0.000    
        0.000       0.000       0.000       0.000       0.000       0.000       0.000       0.000       0.000       0.000    
        0.000       0.000       0.000       0.000       0.000       0.000       0.000       0.000       0.000       0.000    
        0.000       0.000      9.0000E-02  9.0000E-02  9.0000E-02   0.000       0.000       0.000       0.000       0.000    
        0.000       0.000       0.000       0.000       0.000       0.000       0.000       0.000       0.000       0.000    
        0.000    
   3    0.000       0.000       0.000       0.000       0.000       0.000       0.000       0.000       0.000       0.000    
        0.000       0.000       0.000       0.000       0.000       0.000       0.000       0.000       0.000       0.000    
        0.000       0.000       0.000       0.000       0.000       0.000       0.000       0.000       0.000       0.000    
        0.000       0.000       0.000       0.000       0.000       0.000       0.000       0.000       0.000       0.000    
        0.000       0.000       0.000       0.000       0.000       0.000       0.000       0.000       0.000       0.000    
        0.000       0.000       0.000       0.000       0.000       0.000       0.000       0.000       0.000       0.000    
        0.000       0.000      9.0000E-02  9.0000E-02  0.1500       0.000       0.000       0.000       0.000       0.000    
        0.000       0.000       0.000       0.000       0.000       0.000       0.000       0.000       0.000       0.000    
        0.000    
   4    0.000       0.000       0.000       0.000       0.000       0.000       0.000       0.000       0.000       0.000    
        0.000       0.000       0.000       0.000       0.000       0.000       0.000       0.000       0.000       0.000    
        0.000       0.000       0.000       0.000       0.000       0.000       0.000       0.000       0.000       0.000    
        0.000       0.000       0.000       0.000       0.000       0.000       0.000       0.000       0.000       0.000    
        0.000       0.000       0.000       0.000       0.000       0.000       0.000       0.000       0.000       0.000    
        0.000       0.000       0.000       0.000       0.000       0.000       0.000       0.000       0.000       0.000    
        0.000      9.0000E-02  9.0000E-02  9.0000E-02  0.1500       0.000       0.000       0.000       0.000       0.000    
        0.000       0.000       0.000       0.000       0.000       0.000       0.000       0.000       0.000       0.000    
        0.000    
   5    0.000       0.000       0.000       0.000       0.000       0.000       0.000       0.000       0.000       0.000    
        0.000       0.000       0.000       0.000       0.000       0.000       0.000       0.000       0.000       0.000    
        0.000       0.000       0.000       0.000       0.000       0.000       0.000       0.000       0.000       0.000    
        0.000       0.000       0.000       0.000       0.000       0.000       0.000       0.000       0.000       0.000    
        0.000       0.000       0.000       0.000       0.000       0.000       0.000       0.000       0.000       0.000    
        0.000       0.000       0.000       0.000       0.000       0.000       0.000       0.000       0.000       0.000    
        0.000      9.0000E-02  9.0000E-02  9.0000E-02  0.1500      9.0000E-02   0.000       0.000       0.000       0.000    
        0.000       0.000       0.000       0.000       0.000       0.000       0.000       0.000       0.000       0.000    
        0.000    
   6    0.000       0.000       0.000       0.000       0.000       0.000       0.000       0.000       0.000       0.000    
        0.000       0.000       0.000       0.000       0.000       0.000       0.000       0.000       0.000       0.000    
        0.000       0.000       0.000       0.000       0.000       0.000       0.000       0.000       0.000       0.000    
        0.000       0.000       0.000       0.000       0.000       0.000       0.000       0.000       0.000       0.000    
        0.000       0.000       0.000       0.000       0.000       0.000       0.000       0.000       0.000       0.000    
        0.000       0.000       0.000       0.000       0.000       0.000       0.000       0.000       0.000       0.000    
        0.000      9.0000E-02  9.0000E-02  9.0000E-02  0.1500      0.1500      9.0000E-02   0.000       0.000       0.000    
        0.000       0.000       0.000       0.000       0.000       0.000       0.000       0.000       0.000       0.000    
        0.000    
   7    0.000       0.000       0.000       0.000       0.000       0.000       0.000       0.000       0.000       0.000    
        0.000       0.000       0.000       0.000       0.000       0.000       0.000       0.000       0.000       0.000    
        0.000       0.000       0.000       0.000       0.000       0.000       0.000       0.000       0.000       0.000    
        0.000       0.000       0.000       0.000       0.000       0.000       0.000       0.000       0.000       0.000    
        0.000       0.000       0.000       0.000       0.000       0.000       0.000       0.000       0.000       0.000    
        0.000       0.000       0.000       0.000       0.000       0.000       0.000       0.000       0.000       0.000    
       9.0000E-02  9.0000E-02  9.0000E-02  9.0000E-02  0.1500      0.1500      0.1500      9.0000E-02   0.000       0.000    
        0.000       0.000       0.000       0.000       0.000       0.000       0.000       0.000       0.000       0.000    
        0.000    
   8    0.000       0.000       0.000       0.000       0.000       0.000       0.000       0.000       0.000       0.000    
        0.000       0.000       0.000       0.000       0.000       0.000       0.000       0.000       0.000       0.000    
        0.000       0.000       0.000       0.000       0.000       0.000       0.000       0.000       0.000       0.000    
        0.000       0.000       0.000       0.000       0.000       0.000       0.000       0.000       0.000       0.000    
        0.000       0.000       0.000       0.000       0.000       0.000       0.000       0.000       0.000       0.000    
        0.000       0.000       0.000       0.000       0.000       0.000       0.000       0.000       0.000       0.000    
       9.0000E-02  9.0000E-02  9.0000E-02  9.0000E-02  0.1500      0.1500      0.1500      9.0000E-02  9.0000E-02  9.0000E-02
       9.0000E-02   0.000       0.000       0.000       0.000       0.000       0.000       0.000       0.000       0.000    
        0.000    
   9    0.000       0.000       0.000       0.000       0.000       0.000       0.000       0.000       0.000       0.000    
        0.000       0.000       0.000       0.000       0.000       0.000       0.000       0.000       0.000       0.000    
        0.000       0.000       0.000       0.000       0.000       0.000       0.000       0.000       0.000       0.000    
        0.000       0.000       0.000       0.000       0.000       0.000       0.000       0.000       0.000       0.000    
        0.000       0.000       0.000       0.000       0.000       0.000       0.000       0.000      8.0000E-02  8.0000E-02
        0.000       0.000       0.000       0.000       0.000       0.000       0.000       0.000      9.0000E-02  9.0000E-02
       9.0000E-02  9.0000E-02  9.0000E-02  9.0000E-02  0.1500      0.1500      0.1500      9.0000E-02  9.0000E-02  9.0000E-02
       9.0000E-02  9.0000E-02  9.0000E-02  9.0000E-02  9.0000E-02   0.000       0.000       0.000       0.000       0.000    
        0.000    
  10    0.000       0.000       0.000       0.000       0.000       0.000       0.000       0.000       0.000       0.000    
        0.000       0.000       0.000       0.000       0.000       0.000       0.000       0.000       0.000       0.000    
        0.000       0.000       0.000       0.000       0.000       0.000       0.000       0.000       0.000       0.000    
        0.000       0.000       0.000       0.000       0.000       0.000       0.000       0.000       0.000       0.000    
        0.000       0.000       0.000       0.000       0.000       0.000       0.000      8.0000E-02  8.0000E-02  8.0000E-02
       8.0000E-02  8.0000E-02  8.0000E-02   0.000       0.000       0.000      8.0000E-02  9.0000E-02  9.0000E-02  9.0000E-02
       9.0000E-02  9.0000E-02  9.0000E-02  9.0000E-02  0.1500      0.1500      0.1500      9.0000E-02  9.0000E-02  9.0000E-02
       9.0000E-02  9.0000E-02  9.0000E-02  9.0000E-02  9.0000E-02  9.0000E-02   0.000       0.000       0.000       0.000    
        0.000    
  11    0.000       0.000       0.000       0.000       0.000       0.000       0.000       0.000       0.000       0.000    
        0.000       0.000       0.000       0.000       0.000       0.000       0.000       0.000       0.000       0.000    
        0.000       0.000       0.000       0.000       0.000       0.000       0.000       0.000       0.000       0.000    
        0.000       0.000       0.000       0.000       0.000       0.000       0.000       0.000       0.000       0.000    
        0.000       0.000       0.000       0.000       0.000       0.000      8.0000E-02  8.0000E-02  8.0000E-02  8.0000E-02
       8.0000E-02  8.0000E-02  8.0000E-02  8.0000E-02  8.0000E-02  8.0000E-02  8.0000E-02  9.0000E-02  9.0000E-02  9.0000E-02
       9.0000E-02  9.0000E-02  9.0000E-02  9.0000E-02  0.1500      0.1500      0.1500      9.0000E-02  9.0000E-02  9.0000E-02
       9.0000E-02  9.0000E-02  9.0000E-02  9.0000E-02  9.0000E-02  9.0000E-02   0.000       0.000       0.000       0.000    
        0.000    
  12    0.000       0.000       0.000       0.000       0.000       0.000       0.000       0.000       0.000       0.000    
        0.000       0.000       0.000       0.000       0.000       0.000       0.000       0.000       0.000       0.000    
        0.000       0.000       0.000       0.000       0.000       0.000       0.000       0.000       0.000       0.000    
        0.000       0.000       0.000       0.000       0.000       0.000       0.000       0.000       0.000       0.000    
        0.000       0.000       0.000       0.000       0.000       0.000      8.0000E-02  8.0000E-02  8.0000E-02  9.0000E-02
       9.0000E-02  9.0000E-02  9.0000E-02  9.0000E-02  9.0000E-02  9.0000E-02  9.0000E-02  9.0000E-02  9.0000E-02  9.0000E-02
       9.0000E-02  9.0000E-02  9.0000E-02  9.0000E-02  0.1500      0.1500      0.1500      9.0000E-02  9.0000E-02  9.0000E-02
       9.0000E-02  9.0000E-02  9.0000E-02  9.0000E-02  9.0000E-02  9.0000E-02  9.0000E-02   0.000       0.000       0.000    
        0.000    
  13    0.000       0.000       0.000       0.000       0.000       0.000       0.000       0.000       0.000       0.000    
        0.000       0.000       0.000       0.000       0.000       0.000       0.000       0.000       0.000       0.000    
        0.000       0.000       0.000       0.000       0.000       0.000       0.000       0.000       0.000       0.000    
        0.000       0.000       0.000       0.000       0.000       0.000       0.000       0.000       0.000       0.000    
        0.000       0.000       0.000       0.000      8.0000E-02  8.0000E-02  8.0000E-02  8.0000E-02  8.0000E-02  9.0000E-02
       9.0000E-02  9.0000E-02  9.0000E-02  9.0000E-02  9.0000E-02  9.0000E-02  9.0000E-02  9.0000E-02  9.0000E-02  9.0000E-02
       9.0000E-02  9.0000E-02  9.0000E-02  9.0000E-02  0.1500      0.1500      0.1500      9.0000E-02  9.0000E-02  9.0000E-02
       9.0000E-02  9.0000E-02  9.0000E-02  9.0000E-02  9.0000E-02  9.0000E-02  9.0000E-02  9.0000E-02   0.000       0.000    
        0.000    
  14    0.000       0.000       0.000       0.000       0.000       0.000       0.000       0.000       0.000       0.000    
        0.000       0.000       0.000       0.000       0.000       0.000       0.000       0.000       0.000       0.000    
        0.000       0.000       0.000       0.000       0.000       0.000       0.000       0.000       0.000       0.000    
        0.000       0.000       0.000       0.000       0.000       0.000       0.000       0.000       0.000       0.000    
        0.000      8.0000E-02  8.0000E-02  8.0000E-02  8.0000E-02  8.0000E-02  8.0000E-02  8.0000E-02  8.0000E-02  9.0000E-02
       9.0000E-02  9.0000E-02  9.0000E-02  9.0000E-02  9.0000E-02  9.0000E-02  9.0000E-02  9.0000E-02  9.0000E-02  9.0000E-02
       9.0000E-02  9.0000E-02  9.0000E-02  9.0000E-02  0.1500      0.1500      0.1500      9.0000E-02  9.0000E-02  9.0000E-02
       9.0000E-02  9.0000E-02  9.0000E-02  9.0000E-02  9.0000E-02  9.0000E-02  9.0000E-02  9.0000E-02  9.0000E-02   0.000    
        0.000    
  15    0.000       0.000       0.000       0.000       0.000       0.000       0.000       0.000       0.000       0.000    
        0.000       0.000       0.000       0.000       0.000       0.000       0.000       0.000       0.000       0.000    
        0.000       0.000       0.000       0.000       0.000       0.000       0.000       0.000       0.000       0.000    
        0.000       0.000       0.000       0.000       0.000       0.000       0.000       0.000       0.000       0.000    
       8.0000E-02  8.0000E-02  8.0000E-02  8.0000E-02  8.0000E-02  8.0000E-02  8.0000E-02  8.0000E-02  8.0000E-02  8.0000E-02
       8.0000E-02  9.0000E-02  9.0000E-02  9.0000E-02  9.0000E-02  9.0000E-02  9.0000E-02  9.0000E-02  9.0000E-02  9.0000E-02
       9.0000E-02  9.0000E-02  9.0000E-02  9.0000E-02  0.1500      0.1500      0.1500      0.1500      9.0000E-02  9.0000E-02
       9.0000E-02  9.0000E-02  9.0000E-02  9.0000E-02  9.0000E-02  9.0000E-02  9.0000E-02  9.0000E-02  9.0000E-02  9.0000E-02
        0.000    
  16    0.000       0.000       0.000       0.000       0.000       0.000       0.000       0.000       0.000       0.000    
        0.000       0.000       0.000       0.000       0.000       0.000       0.000       0.000       0.000       0.000    
        0.000       0.000       0.000       0.000       0.000       0.000       0.000       0.000       0.000       0.000    
        0.000       0.000       0.000       0.000       0.000       0.000       0.000       0.000       0.000      8.0000E-02
       8.0000E-02  8.0000E-02  8.0000E-02  8.0000E-02  8.0000E-02  8.0000E-02  8.0000E-02  8.0000E-02  8.0000E-02  8.0000E-02
       8.0000E-02  8.0000E-02  9.0000E-02  9.0000E-02  9.0000E-02  9.0000E-02  9.0000E-02  9.0000E-02  9.0000E-02  9.0000E-02
       9.0000E-02  9.0000E-02  9.0000E-02  9.0000E-02  0.1500      0.1500      0.1500      0.1500      0.1500      9.0000E-02
       9.0000E-02  9.0000E-02  9.0000E-02  9.0000E-02  9.0000E-02  9.0000E-02  9.0000E-02  9.0000E-02  9.0000E-02  9.0000E-02
        0.000    
  17    0.000       0.000       0.000       0.000       0.000       0.000       0.000       0.000       0.000       0.000    
        0.000       0.000       0.000       0.000       0.000       0.000       0.000       0.000       0.000       0.000    
        0.000       0.000       0.000       0.000       0.000       0.000       0.000       0.000       0.000       0.000    
        0.000       0.000       0.000       0.000       0.000       0.000       0.000       0.000       0.000      8.0000E-02
       8.0000E-02  8.0000E-02  8.0000E-02  8.0000E-02  8.0000E-02  8.0000E-02  8.0000E-02  8.0000E-02  8.0000E-02  8.0000E-02
       8.0000E-02  8.0000E-02  9.0000E-02  9.0000E-02  9.0000E-02  9.0000E-02  9.0000E-02  9.0000E-02  9.0000E-02  9.0000E-02
       9.0000E-02  9.0000E-02  9.0000E-02  9.0000E-02  0.1500      0.1500      0.1500      0.1500      0.1500      0.1500    
       0.1500      0.1500      0.1500      0.1500      0.1500      0.1500      9.0000E-02  9.0000E-02  9.0000E-02  9.0000E-02
        0.000    
  18    0.000       0.000       0.000       0.000       0.000       0.000       0.000       0.000       0.000       0.000    
        0.000       0.000       0.000       0.000       0.000       0.000       0.000       0.000       0.000       0.000    
        0.000       0.000       0.000       0.000       0.000       0.000       0.000       0.000       0.000       0.000    
        0.000       0.000       0.000       0.000       0.000       0.000       0.000       0.000       0.000      8.0000E-02
       8.0000E-02  8.0000E-02  8.0000E-02  8.0000E-02  8.0000E-02  8.0000E-02  8.0000E-02  8.0000E-02  8.0000E-02  8.0000E-02
       8.0000E-02  8.0000E-02  9.0000E-02  9.0000E-02  9.0000E-02  9.0000E-02  9.0000E-02  9.0000E-02  9.0000E-02  9.0000E-02
       9.0000E-02  9.0000E-02  9.0000E-02  9.0000E-02  0.1500      0.1500      0.1500      0.1500      0.1500      0.1500    
       0.1500      0.1500      0.1500      0.1500      0.1500      0.1500      0.1500      9.0000E-02  9.0000E-02  9.0000E-02
        0.000    
  19    0.000       0.000       0.000       0.000       0.000       0.000       0.000       0.000       0.000       0.000    
        0.000       0.000       0.000       0.000       0.000       0.000       0.000       0.000       0.000       0.000    
        0.000       0.000       0.000       0.000       0.000       0.000       0.000       0.000       0.000       0.000    
        0.000       0.000       0.000       0.000      8.0000E-02  8.0000E-02  8.0000E-02  8.0000E-02  8.0000E-02  8.0000E-02
       8.0000E-02  8.0000E-02  8.0000E-02  8.0000E-02  8.0000E-02  8.0000E-02  8.0000E-02  8.0000E-02  8.0000E-02  8.0000E-02
       8.0000E-02  8.0000E-02  9.0000E-02  9.0000E-02  9.0000E-02  9.0000E-02  9.0000E-02  9.0000E-02  9.0000E-02  9.0000E-02
       9.0000E-02  9.0000E-02  9.0000E-02  9.0000E-02  0.1500      0.1500      0.1500      0.1500      0.1500      0.1500    
       0.1500      0.1500      0.1500      0.1500      0.1500      0.1500      0.1500      9.0000E-02  9.0000E-02  9.0000E-02
       9.0000E-02
  20    0.000       0.000       0.000       0.000       0.000       0.000       0.000       0.000       0.000       0.000    
        0.000       0.000       0.000       0.000       0.000       0.000       0.000       0.000       0.000       0.000    
        0.000       0.000       0.000       0.000       0.000       0.000       0.000       0.000       0.000       0.000    
        0.000       0.000      8.0000E-02  8.0000E-02  8.0000E-02  8.0000E-02  8.0000E-02  8.0000E-02  8.0000E-02  8.0000E-02
       8.0000E-02  8.0000E-02  8.0000E-02  8.0000E-02  8.0000E-02  8.0000E-02  8.0000E-02  8.0000E-02  8.0000E-02  8.0000E-02
       8.0000E-02  8.0000E-02  9.0000E-02  9.0000E-02  9.0000E-02  9.0000E-02  9.0000E-02  9.0000E-02  9.0000E-02  9.0000E-02
       9.0000E-02  9.0000E-02  9.0000E-02  9.0000E-02  0.1500      0.1500      0.1500      0.1500      0.1500      0.1500    
       0.1500      0.1500      0.1500      0.1500      0.1500      0.1500      0.1500      9.0000E-02  9.0000E-02  9.0000E-02
       9.0000E-02
  21    0.000       0.000       0.000       0.000       0.000       0.000       0.000       0.000       0.000       0.000    
        0.000       0.000       0.000       0.000       0.000       0.000       0.000       0.000       0.000       0.000    
        0.000       0.000       0.000       0.000       0.000       0.000       0.000       0.000       0.000      8.0000E-02
       8.0000E-02  8.0000E-02  8.0000E-02  8.0000E-02  8.0000E-02  8.0000E-02  8.0000E-02  8.0000E-02  8.0000E-02  8.0000E-02
       8.0000E-02  8.0000E-02  8.0000E-02  8.0000E-02  8.0000E-02  8.0000E-02  8.0000E-02  8.0000E-02  8.0000E-02  8.0000E-02
       8.0000E-02  8.0000E-02  9.0000E-02  9.0000E-02  0.1500      9.0000E-02  9.0000E-02  9.0000E-02  9.0000E-02  9.0000E-02
       9.0000E-02  9.0000E-02  9.0000E-02  9.0000E-02  9.0000E-02  0.1500      0.1500      0.1500      0.1500      0.1500    
       0.1500      0.1500      0.1500      0.1500      0.1500      0.1500      0.1500      9.0000E-02  9.0000E-02  9.0000E-02
       9.0000E-02
  22    0.000       0.000       0.000       0.000       0.000       0.000       0.000       0.000       0.000       0.000    
        0.000       0.000       0.000       0.000       0.000       0.000       0.000       0.000       0.000       0.000    
        0.000       0.000       0.000       0.000       0.000       0.000      8.0000E-02  8.0000E-02  8.0000E-02  8.0000E-02
       8.0000E-02  8.0000E-02  8.0000E-02  8.0000E-02  8.0000E-02  8.0000E-02  8.0000E-02  8.0000E-02  8.0000E-02  8.0000E-02
       8.0000E-02  8.0000E-02  8.0000E-02  8.0000E-02  8.0000E-02  8.0000E-02  8.0000E-02  8.0000E-02  8.0000E-02  8.0000E-02
       8.0000E-02  9.0000E-02  9.0000E-02  9.0000E-02  0.1500      9.0000E-02  9.0000E-02  9.0000E-02  9.0000E-02  9.0000E-02
       9.0000E-02  9.0000E-02  9.0000E-02  9.0000E-02  9.0000E-02  9.0000E-02  0.1500      0.1500      0.1500      0.1500    
       0.1500      0.1500      0.1500      0.1500      0.1500      0.1500      0.1500      9.0000E-02  9.0000E-02  9.0000E-02
       9.0000E-02
  23    0.000       0.000       0.000       0.000       0.000       0.000       0.000       0.000       0.000       0.000    
        0.000       0.000       0.000       0.000       0.000       0.000       0.000       0.000       0.000       0.000    
        0.000       0.000       0.000       0.000      8.0000E-02  8.0000E-02  8.0000E-02  8.0000E-02  8.0000E-02  8.0000E-02
       8.0000E-02  8.0000E-02  8.0000E-02  8.0000E-02  8.0000E-02  8.0000E-02  8.0000E-02  8.0000E-02  8.0000E-02  8.0000E-02
       8.0000E-02  8.0000E-02  8.0000E-02  8.0000E-02  8.0000E-02  8.0000E-02  8.0000E-02  8.0000E-02  9.0000E-02  9.0000E-02
       9.0000E-02  9.0000E-02  9.0000E-02  9.0000E-02  0.1500      9.0000E-02  9.0000E-02  9.0000E-02  9.0000E-02  9.0000E-02
       9.0000E-02  9.0000E-02  9.0000E-02  9.0000E-02  9.0000E-02  9.0000E-02  9.0000E-02  9.0000E-02  0.1500      0.1500    
       0.1500      0.1500      0.1500      0.1500      0.1500      0.1500      0.1500      9.0000E-02  9.0000E-02  9.0000E-02
       9.0000E-02
  24    0.000       0.000       0.000       0.000       0.000       0.000       0.000       0.000       0.000       0.000    
        0.000       0.000       0.000       0.000       0.000       0.000       0.000       0.000       0.000       0.000    
        0.000       0.000      8.0000E-02  8.0000E-02  8.0000E-02  8.0000E-02  8.0000E-02  8.0000E-02  8.0000E-02  8.0000E-02
       8.0000E-02  8.0000E-02  8.0000E-02  8.0000E-02  8.0000E-02  8.0000E-02  8.0000E-02  8.0000E-02  8.0000E-02  8.0000E-02
       8.0000E-02  8.0000E-02  8.0000E-02  8.0000E-02  9.0000E-02  9.0000E-02  9.0000E-02  9.0000E-02  9.0000E-02  9.0000E-02
       9.0000E-02  9.0000E-02  9.0000E-02  9.0000E-02  0.1500      9.0000E-02  9.0000E-02  9.0000E-02  9.0000E-02  9.0000E-02
       9.0000E-02  9.0000E-02  9.0000E-02  9.0000E-02  9.0000E-02  9.0000E-02  9.0000E-02  9.0000E-02  9.0000E-02  0.1500    
       0.1500      0.1500      0.1500      0.1500      0.1500      0.1500      9.0000E-02  9.0000E-02  9.0000E-02  9.0000E-02
       9.0000E-02
  25    0.000       0.000       0.000       0.000       0.000       0.000       0.000       0.000       0.000       0.000    
        0.000       0.000       0.000       0.000       0.000       0.000       0.000       0.000       0.000       0.000    
       8.0000E-02  8.0000E-02  8.0000E-02  8.0000E-02  8.0000E-02  8.0000E-02  8.0000E-02  8.0000E-02  8.0000E-02  8.0000E-02
       8.0000E-02  8.0000E-02  8.0000E-02  8.0000E-02  8.0000E-02  8.0000E-02  8.0000E-02  8.0000E-02  8.0000E-02  8.0000E-02
       8.0000E-02  8.0000E-02  8.0000E-02  9.0000E-02  9.0000E-02  9.0000E-02  9.0000E-02  9.0000E-02  9.0000E-02  9.0000E-02
       9.0000E-02  9.0000E-02  9.0000E-02  9.0000E-02  0.1500      0.1500      9.0000E-02  9.0000E-02  9.0000E-02  9.0000E-02
       9.0000E-02  9.0000E-02  9.0000E-02  9.0000E-02  9.0000E-02  9.0000E-02  9.0000E-02  9.0000E-02  9.0000E-02  0.1500    
       0.1500      0.1500      0.1500      0.1500      0.1500      9.0000E-02  9.0000E-02  9.0000E-02  9.0000E-02  9.0000E-02
        0.000    
  26    0.000       0.000       0.000       0.000       0.000       0.000       0.000       0.000       0.000       0.000    
        0.000       0.000       0.000       0.000       0.000       0.000       0.000       0.000      8.0000E-02  8.0000E-02
       8.0000E-02  8.0000E-02  8.0000E-02  8.0000E-02  8.0000E-02  8.0000E-02  8.0000E-02  8.0000E-02  8.0000E-02  8.0000E-02
       8.0000E-02  8.0000E-02  8.0000E-02  8.0000E-02  8.0000E-02  8.0000E-02  8.0000E-02  8.0000E-02  8.0000E-02  8.0000E-02
       8.0000E-02  8.0000E-02  9.0000E-02  9.0000E-02  9.0000E-02  9.0000E-02  9.0000E-02  9.0000E-02  9.0000E-02  9.0000E-02
       9.0000E-02  9.0000E-02  9.0000E-02  9.0000E-02  0.1500      0.1500      9.0000E-02  9.0000E-02  9.0000E-02  9.0000E-02
       9.0000E-02  9.0000E-02  9.0000E-02  9.0000E-02  9.0000E-02  9.0000E-02  9.0000E-02  9.0000E-02  9.0000E-02  9.0000E-02
       0.1500      0.1500      0.1500      0.1500      0.1500      9.0000E-02  9.0000E-02  9.0000E-02  9.0000E-02   0.000    
        0.000    
  27    0.000       0.000       0.000       0.000       0.000       0.000       0.000       0.000       0.000       0.000    
        0.000       0.000       0.000       0.000       0.000       0.000       0.000      8.0000E-02  8.0000E-02  8.0000E-02
       8.0000E-02  8.0000E-02  8.0000E-02  8.0000E-02  8.0000E-02  8.0000E-02  8.0000E-02  8.0000E-02  8.0000E-02  8.0000E-02
       8.0000E-02  8.0000E-02  8.0000E-02  8.0000E-02  8.0000E-02  8.0000E-02  8.0000E-02  8.0000E-02  8.0000E-02  8.0000E-02
       8.0000E-02  9.0000E-02  9.0000E-02  9.0000E-02  9.0000E-02  9.0000E-02  9.0000E-02  9.0000E-02  9.0000E-02  9.0000E-02
       9.0000E-02  9.0000E-02  9.0000E-02  9.0000E-02  0.1500      0.1500      9.0000E-02  9.0000E-02  9.0000E-02  9.0000E-02
       9.0000E-02  9.0000E-02  9.0000E-02  9.0000E-02  9.0000E-02  9.0000E-02  9.0000E-02  9.0000E-02  9.0000E-02  9.0000E-02
       9.0000E-02  0.1500      0.1500      0.1500      0.1500      9.0000E-02   0.000       0.000       0.000       0.000    
        0.000    
  28    0.000       0.000       0.000       0.000       0.000       0.000       0.000       0.000       0.000       0.000    
        0.000       0.000       0.000       0.000       0.000       0.000      8.0000E-02  8.0000E-02  8.0000E-02  8.0000E-02
       8.0000E-02  8.0000E-02  8.0000E-02  8.0000E-02  8.0000E-02  8.0000E-02  8.0000E-02  8.0000E-02  8.0000E-02  0.1500    
       0.1500      0.1500      0.1500      8.0000E-02  8.0000E-02  8.0000E-02  8.0000E-02  8.0000E-02  8.0000E-02  9.0000E-02
       9.0000E-02  9.0000E-02  9.0000E-02  9.0000E-02  9.0000E-02  9.0000E-02  9.0000E-02  9.0000E-02  9.0000E-02  9.0000E-02
       9.0000E-02  9.0000E-02  9.0000E-02  9.0000E-02  0.1500      0.1500      0.1500      9.0000E-02  9.0000E-02  9.0000E-02
       9.0000E-02  9.0000E-02  9.0000E-02  9.0000E-02  9.0000E-02  9.0000E-02  9.0000E-02  9.0000E-02  9.0000E-02  9.0000E-02
       9.0000E-02  0.1500      0.1500      0.1500      0.1500      9.0000E-02   0.000       0.000       0.000       0.000    
        0.000    
  29    0.000       0.000       0.000       0.000       0.000       0.000       0.000       0.000       0.000       0.000    
        0.000      8.0000E-02  8.0000E-02  8.0000E-02  8.0000E-02  8.0000E-02  8.0000E-02  8.0000E-02  8.0000E-02  8.0000E-02
       8.0000E-02  8.0000E-02  8.0000E-02  8.0000E-02  8.0000E-02  8.0000E-02  8.0000E-02  8.0000E-02  8.0000E-02  0.1500    
       0.1500      0.1500      0.1500      0.1500      0.1500      8.0000E-02  8.0000E-02  8.0000E-02  8.0000E-02  9.0000E-02
       9.0000E-02  0.1500      0.1500      0.1500      0.1500      0.1500      0.1500      9.0000E-02  9.0000E-02  9.0000E-02
       9.0000E-02  9.0000E-02  9.0000E-02  9.0000E-02  0.1500      0.1500      0.1500      9.0000E-02  9.0000E-02  9.0000E-02
       9.0000E-02  9.0000E-02  9.0000E-02  9.0000E-02  9.0000E-02  9.0000E-02  9.0000E-02  9.0000E-02  9.0000E-02  9.0000E-02
       9.0000E-02  0.1500      0.1500      0.1500      0.1500      9.0000E-02   0.000       0.000       0.000       0.000    
        0.000    
  30    0.000       0.000       0.000       0.000       0.000       0.000       0.000       0.000       0.000       0.000    
       8.0000E-02  8.0000E-02  8.0000E-02  8.0000E-02  8.0000E-02  8.0000E-02  0.1500      0.1500      0.1500      0.1500    
       0.1500      0.1500      0.1500      0.1500      0.1500      0.1500      0.1500      0.1500      0.1500      0.1500    
       0.1500      0.1500      0.1500      0.1500      0.1500      0.1500      0.1500      0.1500      0.1500      0.1500    
       0.1500      0.1500      0.1500      0.1500      0.1500      0.1500      0.1500      0.1500      0.1500      9.0000E-02
       9.0000E-02  9.0000E-02  9.0000E-02  9.0000E-02  0.1500      0.1500      0.1500      0.1500      0.1500      0.1500    
       9.0000E-02  9.0000E-02  9.0000E-02  9.0000E-02  9.0000E-02  9.0000E-02  9.0000E-02  9.0000E-02  9.0000E-02  9.0000E-02
       9.0000E-02  0.1500      0.1500      0.1500      0.1500      9.0000E-02   0.000       0.000       0.000       0.000    
        0.000    
  31    0.000       0.000       0.000       0.000       0.000       0.000       0.000       0.000       0.000      8.0000E-02
       8.0000E-02  8.0000E-02  8.0000E-02  8.0000E-02  8.0000E-02  8.0000E-02  0.1500      0.1500      0.1500      0.1500    
       0.1500      0.1500      0.1500      0.1500      0.1500      0.1500      0.1500      0.1500      0.1500      0.1500    
       0.1500      0.1500      0.1500      0.1500      0.1500      0.1500      0.1500      0.1500      0.1500      0.1500    
       0.1500      0.1500      0.1500      0.1500      0.1500      0.1500      0.1500      0.1500      0.1500      0.1500    
       0.1500      0.1500      0.1500      0.1500      0.1500      0.1500      0.1500      0.1500      0.1500      0.1500    
       9.0000E-02  9.0000E-02  9.0000E-02  9.0000E-02  9.0000E-02  9.0000E-02  9.0000E-02  9.0000E-02  9.0000E-02  9.0000E-02
       9.0000E-02  0.1500      0.1500      0.1500      0.1500      9.0000E-02   0.000       0.000       0.000       0.000    
        0.000    
  32    0.000       0.000       0.000       0.000       0.000       0.000       0.000       0.000      8.0000E-02  8.0000E-02
       8.0000E-02  8.0000E-02  8.0000E-02  8.0000E-02  8.0000E-02  8.0000E-02  8.0000E-02  8.0000E-02  8.0000E-02  8.0000E-02
       8.0000E-02  8.0000E-02  8.0000E-02  8.0000E-02  8.0000E-02  8.0000E-02  9.0000E-02  9.0000E-02  9.0000E-02  9.0000E-02
       9.0000E-02  9.0000E-02  0.1500      0.1500      0.1500      0.1500      0.1500      0.1500      0.1500      0.1500    
       0.1500      0.1500      0.1500      0.1500      0.1500      0.1500      0.1500      0.1500      0.1500      0.1500    
       0.1500      0.1500      0.1500      0.1500      0.1500      0.1500      0.1500      0.1500      0.1500      0.1500    
       9.0000E-02  9.0000E-02  9.0000E-02  9.0000E-02  9.0000E-02  9.0000E-02  9.0000E-02  9.0000E-02  9.0000E-02  9.0000E-02
       9.0000E-02  0.1500      0.1500      0.1500      0.1500      9.0000E-02   0.000       0.000       0.000       0.000    
        0.000    
  33    0.000       0.000       0.000       0.000       0.000       0.000       0.000       0.000      8.0000E-02  8.0000E-02
       8.0000E-02  8.0000E-02  8.0000E-02  8.0000E-02  8.0000E-02  8.0000E-02  8.0000E-02  8.0000E-02  8.0000E-02  8.0000E-02
       8.0000E-02  8.0000E-02  8.0000E-02  8.0000E-02  8.0000E-02  9.0000E-02  9.0000E-02  9.0000E-02  9.0000E-02  9.0000E-02
       9.0000E-02  9.0000E-02  0.1500      0.1500      0.1500      0.1500      0.1500      0.1500      0.1500      0.1500    
       0.1500      9.0000E-02  9.0000E-02  9.0000E-02  9.0000E-02  9.0000E-02  0.1500      0.1500      0.1500      0.1500    
       0.1500      0.1500      0.1500      0.1500      0.1500      0.1500      0.1500      0.1500      0.1500      0.1500    
       9.0000E-02  9.0000E-02  9.0000E-02  9.0000E-02  9.0000E-02  9.0000E-02  9.0000E-02  9.0000E-02  9.0000E-02  9.0000E-02
       9.0000E-02  0.1500      0.1500      0.1500      0.1500      9.0000E-02   0.000       0.000       0.000       0.000    
        0.000    
  34    0.000       0.000       0.000       0.000       0.000       0.000      8.0000E-02  8.0000E-02  8.0000E-02  8.0000E-02
       8.0000E-02  8.0000E-02  8.0000E-02  8.0000E-02  8.0000E-02  8.0000E-02  8.0000E-02  8.0000E-02  8.0000E-02  8.0000E-02
       8.0000E-02  8.0000E-02  9.0000E-02  9.0000E-02  9.0000E-02  9.0000E-02  9.0000E-02  9.0000E-02  9.0000E-02  9.0000E-02
       9.0000E-02  9.0000E-02  0.1500      0.1500      0.1500      0.1500      0.1500      0.1500      0.1500      0.1500    
       0.1500      9.0000E-02  9.0000E-02  9.0000E-02  9.0000E-02  9.0000E-02  0.1500      0.1500      0.1500      0.1500    
       0.1500      0.1500      0.1500      0.1500      0.1500      0.1500      0.1500      0.1500      0.1500      0.1500    
       9.0000E-02  9.0000E-02  9.0000E-02  9.0000E-02  9.0000E-02  9.0000E-02  9.0000E-02  9.0000E-02  9.0000E-02  9.0000E-02
       0.1500      0.1500      0.1500      0.1500      0.1500      9.0000E-02   0.000       0.000       0.000       0.000    
        0.000    
  35    0.000       0.000       0.000       0.000       0.000      8.0000E-02  8.0000E-02  8.0000E-02  8.0000E-02  8.0000E-02
       8.0000E-02  8.0000E-02  8.0000E-02  8.0000E-02  8.0000E-02  8.0000E-02  8.0000E-02  8.0000E-02  9.0000E-02  9.0000E-02
       9.0000E-02  9.0000E-02  9.0000E-02  9.0000E-02  9.0000E-02  0.1500      0.1500      9.0000E-02  9.0000E-02  9.0000E-02
       9.0000E-02  0.1500      0.1500      0.1500      0.1500      0.1500      0.1500      0.1500      0.1500      0.1500    
       0.1500      9.0000E-02  9.0000E-02  9.0000E-02  9.0000E-02  9.0000E-02  0.1500      0.1500      0.1500      0.1500    
       0.1500      0.1500      0.1500      0.1500      0.1500      0.1500      0.1500      0.1500      0.1500      0.1500    
       9.0000E-02  9.0000E-02  9.0000E-02  9.0000E-02  9.0000E-02  9.0000E-02  9.0000E-02  9.0000E-02  9.0000E-02  9.0000E-02
       0.1500      0.1500      0.1500      0.1500      0.1500      9.0000E-02   0.000       0.000       0.000       0.000    
        0.000    
  36    0.000       0.000       0.000       0.000       0.000      8.0000E-02  8.0000E-02  8.0000E-02  8.0000E-02  8.0000E-02
       8.0000E-02  8.0000E-02  8.0000E-02  8.0000E-02  0.1500      0.1500      0.1500      0.1500      0.1500      0.1500    
       0.1500      0.1500      0.1500      0.1500      0.1500      0.1500      0.1500      0.1500      0.1500      0.1500    
       0.1500      0.1500      0.1500      0.1500      0.1500      0.1500      0.1500      0.1500      0.1500      0.1500    
       0.1500      9.0000E-02  9.0000E-02  9.0000E-02  9.0000E-02  9.0000E-02  0.1500      0.1500      0.1500      9.0000E-02
       9.0000E-02  0.1500      0.1500      0.1500      0.1500      0.1500      0.1500      0.1500      0.1500      0.1500    
       0.1500      0.1500      0.1500      0.1500      0.1500      9.0000E-02  9.0000E-02  9.0000E-02  9.0000E-02  9.0000E-02
       0.1500      0.1500      0.1500      0.1500      0.1500      9.0000E-02   0.000       0.000       0.000       0.000    
        0.000    
  37    0.000       0.000       0.000       0.000       0.000      8.0000E-02  8.0000E-02  8.0000E-02  8.0000E-02  8.0000E-02
       8.0000E-02  8.0000E-02  8.0000E-02  0.1500      0.1500      0.1500      0.1500      0.1500      0.1500      0.1500    
       0.1500      0.1500      0.1500      0.1500      0.1500      0.1500      0.1500      0.1500      0.1500      0.1500    
       0.1500      0.1500      0.1500      0.1500      0.1500      0.1500      0.1500      0.1500      0.1500      0.1500    
       9.0000E-02  9.0000E-02  9.0000E-02  9.0000E-02  9.0000E-02  9.0000E-02  0.1500      0.1500      9.0000E-02  9.0000E-02
       9.0000E-02  0.1500      0.1500      0.1500      0.1500      0.1500      0.1500      0.1500      0.1500      0.1500    
       0.1500      0.1500      0.1500      0.1500      0.1500      0.1500      0.1500      0.1500      9.0000E-02  9.0000E-02
       0.1500      0.1500      0.1500      0.1500      0.1500      8.0000E-02   0.000       0.000       0.000       0.000    
        0.000    
  38    0.000       0.000       0.000       0.000       0.000      8.0000E-02  8.0000E-02  8.0000E-02  8.0000E-02  8.0000E-02
       8.0000E-02  8.0000E-02  8.0000E-02  0.1500      0.1500      0.1500      0.1500      0.1500      0.1500      0.1500    
       0.1500      0.1500      0.1500      0.1500      0.1500      0.1500      0.1500      0.1500      0.1500      0.1500    
       0.1500      0.1500      0.1500      0.1500      0.1500      0.1500      0.1500      0.1500      0.1500      0.1500    
       9.0000E-02  9.0000E-02  9.0000E-02  9.0000E-02  9.0000E-02  9.0000E-02  0.1500      0.1500      9.0000E-02  9.0000E-02
       9.0000E-02  9.0000E-02  0.1500      0.1500      0.1500      0.1500      0.1500      0.1500      0.1500      0.1500    
       0.1500      0.1500      0.1500      0.1500      0.1500      0.1500      0.1500      0.1500      0.1500      0.1500    
       0.1500      0.1500      0.1500      0.1500      0.1500      8.0000E-02  8.0000E-02   0.000       0.000       0.000    
        0.000    
  39    0.000       0.000       0.000       0.000       0.000      8.0000E-02  8.0000E-02  8.0000E-02  8.0000E-02  8.0000E-02
       8.0000E-02  8.0000E-02  0.1500      0.1500      0.1500      0.1500      0.1500      0.1500      0.1500      0.1500    
       0.1500      0.1500      0.1500      0.1500      0.1500      0.1500      0.1500      0.1500      0.1500      0.1500    
       0.1500      0.1500      0.1500      0.1500      0.1500      0.1500      0.1500      0.1500      0.1500      0.1500    
       9.0000E-02  9.0000E-02  9.0000E-02  9.0000E-02  9.0000E-02  9.0000E-02  0.1500      0.1500      9.0000E-02  9.0000E-02
       9.0000E-02  9.0000E-02  0.1500      0.1500      0.1500      0.1500      0.1500      0.1500      0.1500      0.1500    
       0.1500      0.1500      0.1500      0.1500      0.1500      0.1500      0.1500      0.1500      0.1500      0.1500    
       0.1500      0.1500      0.1500      0.1500      0.1500      8.0000E-02  8.0000E-02   0.000       0.000       0.000    
        0.000    
  40    0.000       0.000       0.000       0.000      8.0000E-02  8.0000E-02  8.0000E-02  8.0000E-02  8.0000E-02  8.0000E-02
       8.0000E-02  0.1500      0.1500      0.1500      0.1500      0.1500      0.1500      0.1500      0.1500      0.1500    
       0.1500      0.1500      0.1500      0.1500      0.1500      0.1500      0.1500      0.1500      0.1500      0.1500    
       0.1500      0.1500      0.1500      0.1500      0.1500      0.1500      0.1500      0.1500      0.1500      0.1500    
       9.0000E-02  9.0000E-02  9.0000E-02  9.0000E-02  9.0000E-02  9.0000E-02  0.1500      0.1500      9.0000E-02  9.0000E-02
       9.0000E-02  9.0000E-02  9.0000E-02  8.0000E-02  8.0000E-02  8.0000E-02  8.0000E-02  8.0000E-02  8.0000E-02  9.0000E-02
       0.1500      0.1500      0.1500      0.1500      0.1500      0.1500      0.1500      0.1500      0.1500      0.1500    
       0.1500      0.1500      0.1500      0.1500      0.1500      8.0000E-02  8.0000E-02  8.0000E-02   0.000       0.000    
        0.000    
  41    0.000       0.000       0.000       0.000      8.0000E-02  8.0000E-02  8.0000E-02  8.0000E-02  8.0000E-02  8.0000E-02
       8.0000E-02  0.1500      0.1500      0.1500      0.1500      0.1500      0.1500      9.0000E-02  9.0000E-02  9.0000E-02
       9.0000E-02  9.0000E-02  9.0000E-02  9.0000E-02  9.0000E-02  9.0000E-02  9.0000E-02  9.0000E-02  9.0000E-02  9.0000E-02
       9.0000E-02  9.0000E-02  0.1500      0.1500      0.1500      0.1500      0.1500      0.1500      0.1500      9.0000E-02
       8.0000E-02  8.0000E-02  8.0000E-02  8.0000E-02  8.0000E-02  8.0000E-02  0.1500      0.1500      9.0000E-02  9.0000E-02
       9.0000E-02  9.0000E-02  9.0000E-02  8.0000E-02  8.0000E-02  8.0000E-02  8.0000E-02  8.0000E-02  8.0000E-02  9.0000E-02
       9.0000E-02  0.1500      0.1500      0.1500      0.1500      0.1500      0.1500      0.1500      0.1500      0.1500    
       0.1500      0.1500      0.1500      0.1500      0.1500      8.0000E-02  8.0000E-02  8.0000E-02  8.0000E-02   0.000    
        0.000    
  42    0.000       0.000       0.000      8.0000E-02  8.0000E-02  8.0000E-02  8.0000E-02  8.0000E-02  8.0000E-02  0.1500    
       0.1500      0.1500      0.1500      0.1500      8.0000E-02  8.0000E-02  8.0000E-02  8.0000E-02  8.0000E-02  9.0000E-02
       9.0000E-02  9.0000E-02  9.0000E-02  9.0000E-02  9.0000E-02  9.0000E-02  9.0000E-02  9.0000E-02  9.0000E-02  9.0000E-02
       9.0000E-02  9.0000E-02  0.1500      0.1500      0.1500      0.1500      0.1500      0.1500      0.1500      9.0000E-02
       8.0000E-02  8.0000E-02  8.0000E-02  8.0000E-02  8.0000E-02  8.0000E-02  0.1500      0.1500      9.0000E-02  9.0000E-02
       9.0000E-02  9.0000E-02  9.0000E-02  8.0000E-02  8.0000E-02  8.0000E-02  8.0000E-02  8.0000E-02  8.0000E-02  9.0000E-02
       9.0000E-02  0.1500      0.1500      0.1500      0.1500      0.1500      0.1500      0.1500      0.1500      0.1500    
       0.1500      0.1500      0.1500      0.1500      0.1500      0.1500      0.1500      8.0000E-02  8.0000E-02   0.000    
        0.000    
  43    0.000       0.000       0.000      8.0000E-02  8.0000E-02  8.0000E-02  8.0000E-02  8.0000E-02  8.0000E-02  0.1500    
       0.1500      0.1500      0.1500      8.0000E-02  8.0000E-02  8.0000E-02  8.0000E-02  8.0000E-02  8.0000E-02  8.0000E-02
       9.0000E-02  9.0000E-02  9.0000E-02  9.0000E-02  9.0000E-02  9.0000E-02  9.0000E-02  9.0000E-02  9.0000E-02  9.0000E-02
       9.0000E-02  9.0000E-02  0.1500      0.1500      0.1500      0.1500      0.1500      0.1500      0.1500      9.0000E-02
       8.0000E-02  8.0000E-02  8.0000E-02  8.0000E-02  8.0000E-02  8.0000E-02  0.1500      0.1500      9.0000E-02  9.0000E-02
       8.0000E-02  8.0000E-02  8.0000E-02  8.0000E-02  8.0000E-02  8.0000E-02  8.0000E-02  8.0000E-02  8.0000E-02  9.0000E-02
       9.0000E-02  0.1500      0.1500      0.1500      0.1500      0.1500      0.1500      9.0000E-02  9.0000E-02  9.0000E-02
       9.0000E-02  0.1500      0.1500      0.1500      0.1500      0.1500      0.1500      0.1500      0.1500       0.000    
        0.000    
  44    0.000       0.000      8.0000E-02  8.0000E-02  8.0000E-02  8.0000E-02  8.0000E-02  8.0000E-02  0.1500      0.1500    
       0.1500      0.1500      8.0000E-02  8.0000E-02  8.0000E-02  8.0000E-02  8.0000E-02  8.0000E-02  8.0000E-02  8.0000E-02
       8.0000E-02  9.0000E-02  9.0000E-02  9.0000E-02  9.0000E-02  9.0000E-02  9.0000E-02  9.0000E-02  9.0000E-02  9.0000E-02
       9.0000E-02  9.0000E-02  0.1500      0.1500      0.1500      0.1500      0.1500      0.1500      0.1500      9.0000E-02
       8.0000E-02  8.0000E-02  8.0000E-02  8.0000E-02  8.0000E-02  8.0000E-02  0.1500      0.1500      9.0000E-02  9.0000E-02
       8.0000E-02  8.0000E-02  8.0000E-02  8.0000E-02  8.0000E-02  8.0000E-02  8.0000E-02  8.0000E-02  8.0000E-02  9.0000E-02
       9.0000E-02  0.1500      0.1500      9.0000E-02  9.0000E-02  9.0000E-02  9.0000E-02  9.0000E-02  9.0000E-02  9.0000E-02
       9.0000E-02  0.1500      0.1500      0.1500      0.1500      0.1500      0.1500      0.1500      0.1500       0.000    
        0.000    
  45    0.000      8.0000E-02  8.0000E-02  8.0000E-02  8.0000E-02  8.0000E-02  0.1500      0.1500      0.1500      0.1500    
       0.1500      0.1500      8.0000E-02  8.0000E-02  8.0000E-02  8.0000E-02  8.0000E-02  8.0000E-02  8.0000E-02  8.0000E-02
       8.0000E-02  8.0000E-02  9.0000E-02  9.0000E-02  9.0000E-02  9.0000E-02  9.0000E-02  9.0000E-02  9.0000E-02  9.0000E-02
       9.0000E-02  9.0000E-02  0.1500      0.1500      0.1500      0.1500      0.1500      0.1500      0.1500      0.1500    
       8.0000E-02  8.0000E-02  8.0000E-02  8.0000E-02  8.0000E-02  8.0000E-02  0.1500      0.1500      9.0000E-02  9.0000E-02
       8.0000E-02  8.0000E-02  8.0000E-02  8.0000E-02  8.0000E-02  8.0000E-02  8.0000E-02  8.0000E-02  8.0000E-02  9.0000E-02
       9.0000E-02  0.1500      0.1500      9.0000E-02  9.0000E-02  9.0000E-02  9.0000E-02  9.0000E-02  9.0000E-02  9.0000E-02
       9.0000E-02  0.1500      0.1500      0.1500      0.1500      0.1500      0.1500      0.1500      0.1500       0.000    
        0.000    
  46    0.000      8.0000E-02  8.0000E-02  8.0000E-02  8.0000E-02  0.1500      0.1500      0.1500      0.1500      8.0000E-02
       8.0000E-02  8.0000E-02  8.0000E-02  8.0000E-02  8.0000E-02  8.0000E-02  8.0000E-02  8.0000E-02  8.0000E-02  8.0000E-02
       8.0000E-02  8.0000E-02  9.0000E-02  9.0000E-02  9.0000E-02  9.0000E-02  9.0000E-02  9.0000E-02  9.0000E-02  9.0000E-02
       9.0000E-02  9.0000E-02  0.1500      0.1500      0.1500      0.1500      0.1500      0.1500      0.1500      0.1500    
       8.0000E-02  8.0000E-02  8.0000E-02  8.0000E-02  8.0000E-02  8.0000E-02  0.1500      0.1500      0.1500      9.0000E-02
       8.0000E-02  8.0000E-02  8.0000E-02  8.0000E-02  8.0000E-02  8.0000E-02  8.0000E-02  8.0000E-02  8.0000E-02  9.0000E-02
       9.0000E-02  0.1500      0.1500      9.0000E-02  9.0000E-02  9.0000E-02  9.0000E-02  9.0000E-02  9.0000E-02  9.0000E-02
       9.0000E-02  0.1500      0.1500      0.1500      0.1500      0.1500      0.1500      0.1500       0.000       0.000    
        0.000    
  47   8.0000E-02  8.0000E-02  8.0000E-02  8.0000E-02  8.0000E-02  8.0000E-02  8.0000E-02  8.0000E-02  8.0000E-02  8.0000E-02
       8.0000E-02  8.0000E-02  8.0000E-02  8.0000E-02  8.0000E-02  8.0000E-02  8.0000E-02  8.0000E-02  8.0000E-02  8.0000E-02
       8.0000E-02  8.0000E-02  8.0000E-02  9.0000E-02  9.0000E-02  9.0000E-02  9.0000E-02  9.0000E-02  9.0000E-02  9.0000E-02
       9.0000E-02  9.0000E-02  0.1500      0.1500      0.1500      0.1500      0.1500      0.1500      0.1500      0.1500    
       8.0000E-02  8.0000E-02  8.0000E-02  8.0000E-02  8.0000E-02  8.0000E-02  8.0000E-02  0.1500      0.1500      9.0000E-02
       8.0000E-02  8.0000E-02  8.0000E-02  8.0000E-02  8.0000E-02  8.0000E-02  8.0000E-02  8.0000E-02  8.0000E-02  9.0000E-02
       9.0000E-02  0.1500      0.1500      9.0000E-02  9.0000E-02  9.0000E-02  9.0000E-02  9.0000E-02  9.0000E-02  9.0000E-02
       9.0000E-02  0.1500      0.1500      0.1500      0.1500      0.1500      0.1500      8.0000E-02   0.000       0.000    
        0.000    
  48    0.000      8.0000E-02  8.0000E-02  8.0000E-02  8.0000E-02  8.0000E-02  8.0000E-02  8.0000E-02  8.0000E-02  8.0000E-02
       8.0000E-02  8.0000E-02  8.0000E-02  8.0000E-02  8.0000E-02  8.0000E-02  8.0000E-02  8.0000E-02  8.0000E-02  8.0000E-02
       8.0000E-02  8.0000E-02  8.0000E-02  9.0000E-02  9.0000E-02  9.0000E-02  9.0000E-02  9.0000E-02  9.0000E-02  9.0000E-02
       9.0000E-02  9.0000E-02  0.1500      0.1500      0.1500      0.1500      0.1500      0.1500      0.1500      9.0000E-02
       8.0000E-02  8.0000E-02  8.0000E-02  8.0000E-02  8.0000E-02  8.0000E-02  8.0000E-02  0.1500      0.1500      0.1500    
       8.0000E-02  8.0000E-02  8.0000E-02  8.0000E-02  8.0000E-02  8.0000E-02  8.0000E-02  8.0000E-02  8.0000E-02  9.0000E-02
       9.0000E-02  0.1500      0.1500      9.0000E-02  9.0000E-02  9.0000E-02  9.0000E-02  9.0000E-02  9.0000E-02  9.0000E-02
       9.0000E-02  0.1500      0.1500      0.1500      0.1500      9.0000E-02  8.0000E-02   0.000       0.000       0.000    
        0.000    
  49    0.000       0.000      8.0000E-02  8.0000E-02  8.0000E-02  8.0000E-02  8.0000E-02  8.0000E-02  8.0000E-02  8.0000E-02
       8.0000E-02  8.0000E-02  8.0000E-02  8.0000E-02  8.0000E-02  8.0000E-02  8.0000E-02  8.0000E-02  8.0000E-02  8.0000E-02
       8.0000E-02  8.0000E-02  8.0000E-02  8.0000E-02  8.0000E-02  9.0000E-02  9.0000E-02  9.0000E-02  9.0000E-02  9.0000E-02
       9.0000E-02  9.0000E-02  0.1500      0.1500      0.1500      0.1500      0.1500      0.1500      0.1500      9.0000E-02
       8.0000E-02  8.0000E-02  8.0000E-02  8.0000E-02  8.0000E-02  8.0000E-02  8.0000E-02  0.1500      0.1500      0.1500    
       8.0000E-02  8.0000E-02  8.0000E-02  8.0000E-02  8.0000E-02  8.0000E-02  8.0000E-02  8.0000E-02  8.0000E-02  9.0000E-02
       9.0000E-02  0.1500      0.1500      9.0000E-02  9.0000E-02  9.0000E-02  9.0000E-02  9.0000E-02  9.0000E-02  9.0000E-02
       0.1500      0.1500      0.1500      0.1500      0.1500      9.0000E-02   0.000       0.000       0.000       0.000    
        0.000    
  50    0.000       0.000       0.000      8.0000E-02  8.0000E-02  8.0000E-02  8.0000E-02  8.0000E-02  8.0000E-02  8.0000E-02
       8.0000E-02  8.0000E-02  8.0000E-02  8.0000E-02  8.0000E-02  8.0000E-02  8.0000E-02  8.0000E-02  8.0000E-02  8.0000E-02
       8.0000E-02  8.0000E-02  8.0000E-02  8.0000E-02  8.0000E-02  8.0000E-02  9.0000E-02  9.0000E-02  9.0000E-02  9.0000E-02
       9.0000E-02  9.0000E-02  0.1500      0.1500      0.1500      0.1500      0.1500      0.1500      0.1500      9.0000E-02
       8.0000E-02  8.0000E-02  8.0000E-02  8.0000E-02  8.0000E-02  8.0000E-02  8.0000E-02  0.1500      0.1500      0.1500    
       8.0000E-02  8.0000E-02  8.0000E-02  8.0000E-02  8.0000E-02  8.0000E-02  8.0000E-02  8.0000E-02  8.0000E-02  9.0000E-02
       9.0000E-02  0.1500      0.1500      9.0000E-02  9.0000E-02  9.0000E-02  9.0000E-02  9.0000E-02  9.0000E-02  9.0000E-02
       0.1500      0.1500      0.1500      0.1500      9.0000E-02  9.0000E-02   0.000       0.000       0.000       0.000    
        0.000    
  51    0.000       0.000       0.000       0.000       0.000       0.000       0.000       0.000      8.0000E-02  8.0000E-02
       8.0000E-02  8.0000E-02  8.0000E-02   0.000       0.000      8.0000E-02  8.0000E-02  8.0000E-02  8.0000E-02  8.0000E-02
       8.0000E-02  8.0000E-02  8.0000E-02  8.0000E-02  8.0000E-02  8.0000E-02  8.0000E-02  9.0000E-02  9.0000E-02  9.0000E-02
       9.0000E-02  9.0000E-02  0.1500      0.1500      0.1500      0.1500      0.1500      0.1500      0.1500      9.0000E-02
       8.0000E-02  8.0000E-02  8.0000E-02  8.0000E-02  8.0000E-02  8.0000E-02  8.0000E-02  0.1500      0.1500      0.1500    
       8.0000E-02  8.0000E-02  8.0000E-02  8.0000E-02  8.0000E-02  8.0000E-02  8.0000E-02  8.0000E-02  8.0000E-02  9.0000E-02
       9.0000E-02  0.1500      0.1500      9.0000E-02  9.0000E-02  9.0000E-02  9.0000E-02  9.0000E-02  9.0000E-02  9.0000E-02
       0.1500      0.1500      0.1500      0.1500      9.0000E-02  9.0000E-02   0.000       0.000       0.000       0.000    
        0.000    
  52    0.000       0.000       0.000       0.000       0.000       0.000       0.000       0.000       0.000       0.000    
        0.000       0.000       0.000       0.000       0.000       0.000      8.0000E-02  8.0000E-02  8.0000E-02  8.0000E-02
       8.0000E-02  8.0000E-02  8.0000E-02  8.0000E-02  8.0000E-02  8.0000E-02  8.0000E-02  8.0000E-02  9.0000E-02  9.0000E-02
       9.0000E-02  9.0000E-02  0.1500      0.1500      0.1500      0.1500      0.1500      0.1500      9.0000E-02  9.0000E-02
       8.0000E-02  8.0000E-02  8.0000E-02  8.0000E-02  8.0000E-02  8.0000E-02  8.0000E-02  0.1500      0.1500      0.1500    
       8.0000E-02  8.0000E-02  8.0000E-02  8.0000E-02  8.0000E-02  8.0000E-02  8.0000E-02  8.0000E-02  8.0000E-02  9.0000E-02
       0.1500      0.1500      0.1500      9.0000E-02  9.0000E-02  9.0000E-02  9.0000E-02  9.0000E-02  9.0000E-02  9.0000E-02
       0.1500      0.1500      0.1500      0.1500      9.0000E-02  9.0000E-02   0.000       0.000       0.000       0.000    
        0.000    
  53    0.000       0.000       0.000       0.000       0.000       0.000       0.000       0.000       0.000       0.000    
        0.000       0.000       0.000       0.000       0.000       0.000       0.000      8.0000E-02  8.0000E-02  8.0000E-02
       8.0000E-02  8.0000E-02  8.0000E-02  8.0000E-02  8.0000E-02  8.0000E-02  8.0000E-02  8.0000E-02  9.0000E-02  9.0000E-02
       9.0000E-02  9.0000E-02  0.1500      0.1500      0.1500      0.1500      0.1500      0.1500      9.0000E-02  9.0000E-02
       8.0000E-02  8.0000E-02  8.0000E-02  8.0000E-02  8.0000E-02  8.0000E-02  8.0000E-02  0.1500      0.1500      0.1500    
       8.0000E-02  8.0000E-02  8.0000E-02  8.0000E-02  8.0000E-02  8.0000E-02  8.0000E-02  8.0000E-02  8.0000E-02  9.0000E-02
       0.1500      0.1500      0.1500      9.0000E-02  9.0000E-02  9.0000E-02  9.0000E-02  9.0000E-02  9.0000E-02  9.0000E-02
       0.1500      0.1500      0.1500      0.1500      9.0000E-02  9.0000E-02   0.000       0.000       0.000       0.000    
        0.000    
  54    0.000       0.000       0.000       0.000       0.000       0.000       0.000       0.000       0.000       0.000    
        0.000       0.000       0.000       0.000       0.000       0.000       0.000       0.000      8.0000E-02  8.0000E-02
       8.0000E-02  8.0000E-02  8.0000E-02  8.0000E-02  8.0000E-02  8.0000E-02  8.0000E-02  8.0000E-02  8.0000E-02  9.0000E-02
       9.0000E-02  9.0000E-02  0.1500      0.1500      0.1500      0.1500      0.1500      0.1500      9.0000E-02  9.0000E-02
       8.0000E-02  8.0000E-02  8.0000E-02  8.0000E-02  8.0000E-02  8.0000E-02  8.0000E-02  0.1500      0.1500      0.1500    
       8.0000E-02  8.0000E-02  8.0000E-02  8.0000E-02  8.0000E-02  8.0000E-02  8.0000E-02  8.0000E-02  8.0000E-02  9.0000E-02
       0.1500      0.1500      0.1500      9.0000E-02  9.0000E-02  9.0000E-02  9.0000E-02  9.0000E-02  9.0000E-02  0.1500    
       0.1500      0.1500      0.1500      0.1500      9.0000E-02  9.0000E-02   0.000       0.000       0.000       0.000    
        0.000    
  55    0.000       0.000       0.000       0.000       0.000       0.000       0.000       0.000       0.000       0.000    
        0.000       0.000       0.000       0.000       0.000       0.000       0.000       0.000      8.0000E-02  8.0000E-02
       8.0000E-02  8.0000E-02  8.0000E-02  8.0000E-02  8.0000E-02  8.0000E-02  8.0000E-02  8.0000E-02  8.0000E-02  9.0000E-02
       9.0000E-02  9.0000E-02  0.1500      0.1500      0.1500      0.1500      0.1500      0.1500      9.0000E-02  8.0000E-02
       8.0000E-02  8.0000E-02  8.0000E-02  8.0000E-02  8.0000E-02  8.0000E-02  8.0000E-02  0.1500      0.1500      0.1500    
       8.0000E-02  8.0000E-02  8.0000E-02  8.0000E-02  8.0000E-02  8.0000E-02  8.0000E-02  8.0000E-02  8.0000E-02  9.0000E-02
       0.1500      0.1500      0.1500      9.0000E-02  9.0000E-02  9.0000E-02  9.0000E-02  9.0000E-02  9.0000E-02  0.1500    
       0.1500      0.1500      0.1500      0.1500      9.0000E-02  9.0000E-02   0.000       0.000       0.000       0.000    
        0.000    
  56    0.000       0.000       0.000       0.000       0.000       0.000       0.000       0.000       0.000       0.000    
        0.000       0.000       0.000       0.000       0.000       0.000       0.000       0.000       0.000       0.000    
        0.000      8.0000E-02  8.0000E-02  8.0000E-02  8.0000E-02  8.0000E-02  8.0000E-02  8.0000E-02  8.0000E-02  9.0000E-02
       9.0000E-02  9.0000E-02  0.1500      0.1500      0.1500      0.1500      0.1500      0.1500      9.0000E-02  8.0000E-02
       8.0000E-02  8.0000E-02  8.0000E-02  8.0000E-02  8.0000E-02  8.0000E-02  8.0000E-02  0.1500      0.1500      0.1500    
       9.0000E-02  8.0000E-02  8.0000E-02  8.0000E-02  8.0000E-02  8.0000E-02  8.0000E-02  8.0000E-02  8.0000E-02  9.0000E-02
       0.1500      0.1500      0.1500      9.0000E-02  9.0000E-02  9.0000E-02  9.0000E-02  9.0000E-02  9.0000E-02  0.1500    
       0.1500      0.1500      0.1500      0.1500      9.0000E-02  9.0000E-02   0.000       0.000       0.000       0.000    
        0.000    
  57    0.000       0.000       0.000       0.000       0.000       0.000       0.000       0.000       0.000       0.000    
        0.000       0.000       0.000       0.000       0.000       0.000       0.000       0.000       0.000       0.000    
        0.000       0.000      8.0000E-02  8.0000E-02  8.0000E-02  8.0000E-02  8.0000E-02  8.0000E-02  8.0000E-02  8.0000E-02
       9.0000E-02  9.0000E-02  0.1500      0.1500      0.1500      0.1500      0.1500      0.1500      9.0000E-02  8.0000E-02
       8.0000E-02  8.0000E-02  8.0000E-02  8.0000E-02  8.0000E-02  8.0000E-02  8.0000E-02  8.0000E-02  8.0000E-02  0.1500    
       9.0000E-02  8.0000E-02  8.0000E-02  8.0000E-02  8.0000E-02  8.0000E-02  8.0000E-02  8.0000E-02  8.0000E-02  9.0000E-02
       0.1500      0.1500      9.0000E-02  9.0000E-02  8.0000E-02  8.0000E-02  9.0000E-02  9.0000E-02  9.0000E-02  0.1500    
       0.1500      0.1500      0.1500      0.1500      9.0000E-02  9.0000E-02   0.000       0.000       0.000       0.000    
        0.000    
  58    0.000       0.000       0.000       0.000       0.000       0.000       0.000       0.000       0.000       0.000    
        0.000       0.000       0.000       0.000       0.000       0.000       0.000       0.000       0.000       0.000    
        0.000       0.000       0.000      8.0000E-02  8.0000E-02  8.0000E-02  8.0000E-02  8.0000E-02  8.0000E-02  8.0000E-02
       9.0000E-02  9.0000E-02  0.1500      0.1500      0.1500      0.1500      0.1500      0.1500      9.0000E-02  8.0000E-02
       8.0000E-02  8.0000E-02  8.0000E-02  8.0000E-02  8.0000E-02  8.0000E-02  8.0000E-02  8.0000E-02  8.0000E-02  0.1500    
       9.0000E-02  8.0000E-02  8.0000E-02  8.0000E-02  8.0000E-02  8.0000E-02  8.0000E-02  8.0000E-02  8.0000E-02  9.0000E-02
       0.1500      9.0000E-02  9.0000E-02  9.0000E-02  8.0000E-02  8.0000E-02  8.0000E-02  9.0000E-02  9.0000E-02  0.1500    
       0.1500      0.1500      0.1500      0.1500      9.0000E-02  9.0000E-02   0.000       0.000       0.000       0.000    
        0.000    
  59    0.000       0.000       0.000       0.000       0.000       0.000       0.000       0.000       0.000       0.000    
        0.000       0.000       0.000       0.000       0.000       0.000       0.000       0.000       0.000       0.000    
        0.000       0.000       0.000       0.000       0.000       0.000       0.000       0.000       0.000      8.0000E-02
       8.0000E-02  9.0000E-02  0.1500      0.1500      0.1500      0.1500      0.1500      0.1500      9.0000E-02  8.0000E-02
       8.0000E-02  8.0000E-02  8.0000E-02  8.0000E-02  8.0000E-02  8.0000E-02  8.0000E-02  8.0000E-02  8.0000E-02  0.1500    
       0.1500      8.0000E-02  8.0000E-02  8.0000E-02  8.0000E-02  8.0000E-02  8.0000E-02  8.0000E-02  8.0000E-02  9.0000E-02
       9.0000E-02  9.0000E-02  9.0000E-02  9.0000E-02  8.0000E-02  8.0000E-02  8.0000E-02  9.0000E-02  9.0000E-02  0.1500    
       0.1500      0.1500      0.1500      0.1500      9.0000E-02  9.0000E-02   0.000       0.000       0.000       0.000    
        0.000    
  60    0.000       0.000       0.000       0.000       0.000       0.000       0.000       0.000       0.000       0.000    
        0.000       0.000       0.000       0.000       0.000       0.000       0.000       0.000       0.000       0.000    
        0.000       0.000       0.000       0.000       0.000       0.000       0.000       0.000       0.000       0.000    
        0.000      9.0000E-02  0.1500      0.1500      0.1500      0.1500      0.1500      0.1500      8.0000E-02  8.0000E-02
       8.0000E-02  8.0000E-02  8.0000E-02  8.0000E-02  8.0000E-02  8.0000E-02  8.0000E-02  8.0000E-02  8.0000E-02  8.0000E-02
       0.1500      8.0000E-02  8.0000E-02  8.0000E-02  8.0000E-02  8.0000E-02  8.0000E-02  8.0000E-02  9.0000E-02  9.0000E-02
       9.0000E-02  8.0000E-02  8.0000E-02  8.0000E-02  8.0000E-02  8.0000E-02  8.0000E-02  9.0000E-02  0.1500      0.1500    
       0.1500      0.1500      9.0000E-02  9.0000E-02  9.0000E-02  9.0000E-02   0.000       0.000       0.000       0.000    
        0.000    
  61    0.000       0.000       0.000       0.000       0.000       0.000       0.000       0.000       0.000       0.000    
        0.000       0.000       0.000       0.000       0.000       0.000       0.000       0.000       0.000       0.000    
        0.000       0.000       0.000       0.000       0.000       0.000       0.000       0.000       0.000       0.000    
        0.000       0.000      9.0000E-02  9.0000E-02  9.0000E-02  9.0000E-02  9.0000E-02  9.0000E-02  8.0000E-02  8.0000E-02
       8.0000E-02  8.0000E-02  8.0000E-02  8.0000E-02  8.0000E-02  8.0000E-02  8.0000E-02  8.0000E-02  8.0000E-02  8.0000E-02
       0.1500      0.1500      8.0000E-02  8.0000E-02  8.0000E-02  8.0000E-02  8.0000E-02  8.0000E-02  8.0000E-02  8.0000E-02
       8.0000E-02  8.0000E-02  8.0000E-02  8.0000E-02  8.0000E-02  8.0000E-02  8.0000E-02  9.0000E-02  0.1500      9.0000E-02
       0.1500      0.1500      9.0000E-02  9.0000E-02  9.0000E-02  9.0000E-02   0.000       0.000       0.000       0.000    
        0.000    
  62    0.000       0.000       0.000       0.000       0.000       0.000       0.000       0.000       0.000       0.000    
        0.000       0.000       0.000       0.000       0.000       0.000       0.000       0.000       0.000       0.000    
        0.000       0.000       0.000       0.000       0.000       0.000       0.000       0.000       0.000       0.000    
        0.000       0.000       0.000      9.0000E-02  9.0000E-02   0.000       0.000       0.000       0.000       0.000    
        0.000       0.000       0.000       0.000       0.000       0.000      8.0000E-02  8.0000E-02  8.0000E-02  8.0000E-02
       9.0000E-02  0.1500      8.0000E-02  8.0000E-02  8.0000E-02  8.0000E-02  8.0000E-02  8.0000E-02  8.0000E-02  8.0000E-02
       8.0000E-02  8.0000E-02  8.0000E-02  8.0000E-02  8.0000E-02  8.0000E-02  9.0000E-02  0.1500      0.1500      9.0000E-02
       9.0000E-02  9.0000E-02  9.0000E-02  9.0000E-02  9.0000E-02  9.0000E-02   0.000       0.000       0.000       0.000    
        0.000    
  63    0.000       0.000       0.000       0.000       0.000       0.000       0.000       0.000       0.000       0.000    
        0.000       0.000       0.000       0.000       0.000       0.000       0.000       0.000       0.000       0.000    
        0.000       0.000       0.000       0.000       0.000       0.000       0.000       0.000       0.000       0.000    
        0.000       0.000       0.000       0.000       0.000       0.000       0.000       0.000       0.000       0.000    
        0.000       0.000       0.000       0.000       0.000       0.000      8.0000E-02  8.0000E-02  8.0000E-02  8.0000E-02
       9.0000E-02  9.0000E-02  8.0000E-02  8.0000E-02  8.0000E-02  8.0000E-02  8.0000E-02  8.0000E-02  8.0000E-02  8.0000E-02
       8.0000E-02  8.0000E-02  8.0000E-02  8.0000E-02  8.0000E-02  8.0000E-02  9.0000E-02  0.1500      0.1500      9.0000E-02
       9.0000E-02  9.0000E-02  9.0000E-02  9.0000E-02  9.0000E-02  9.0000E-02   0.000       0.000       0.000       0.000    
        0.000    
  64    0.000       0.000       0.000       0.000       0.000       0.000       0.000       0.000       0.000       0.000    
        0.000       0.000       0.000       0.000       0.000       0.000       0.000       0.000       0.000       0.000    
        0.000       0.000       0.000       0.000       0.000       0.000       0.000       0.000       0.000       0.000    
        0.000       0.000       0.000       0.000       0.000       0.000       0.000       0.000       0.000       0.000    
        0.000       0.000       0.000       0.000       0.000       0.000       0.000      8.0000E-02  8.0000E-02  8.0000E-02
       9.0000E-02  9.0000E-02  8.0000E-02  8.0000E-02  8.0000E-02  8.0000E-02  8.0000E-02  8.0000E-02  8.0000E-02  8.0000E-02
       8.0000E-02  8.0000E-02  8.0000E-02  8.0000E-02  8.0000E-02  8.0000E-02  9.0000E-02  0.1500      9.0000E-02  9.0000E-02
       9.0000E-02  9.0000E-02  9.0000E-02  9.0000E-02  9.0000E-02  9.0000E-02   0.000       0.000       0.000       0.000    
        0.000    
  65    0.000       0.000       0.000       0.000       0.000       0.000       0.000       0.000       0.000       0.000    
        0.000       0.000       0.000       0.000       0.000       0.000       0.000       0.000       0.000       0.000    
        0.000       0.000       0.000       0.000       0.000       0.000       0.000       0.000       0.000       0.000    
        0.000       0.000       0.000       0.000       0.000       0.000       0.000       0.000       0.000       0.000    
        0.000       0.000       0.000       0.000       0.000       0.000       0.000       0.000      8.0000E-02  8.0000E-02
       9.0000E-02  9.0000E-02  8.0000E-02  8.0000E-02  8.0000E-02  8.0000E-02  8.0000E-02  8.0000E-02  8.0000E-02  8.0000E-02
       8.0000E-02  8.0000E-02  8.0000E-02  8.0000E-02  8.0000E-02  9.0000E-02  9.0000E-02  9.0000E-02  9.0000E-02  9.0000E-02
       9.0000E-02  9.0000E-02  9.0000E-02  9.0000E-02  9.0000E-02  9.0000E-02   0.000       0.000       0.000       0.000    
        0.000    
  66    0.000       0.000       0.000       0.000       0.000       0.000       0.000       0.000       0.000       0.000    
        0.000       0.000       0.000       0.000       0.000       0.000       0.000       0.000       0.000       0.000    
        0.000       0.000       0.000       0.000       0.000       0.000       0.000       0.000       0.000       0.000    
        0.000       0.000       0.000       0.000       0.000       0.000       0.000       0.000       0.000       0.000    
        0.000       0.000       0.000       0.000       0.000       0.000       0.000       0.000       0.000      8.0000E-02
       8.0000E-02  8.0000E-02  8.0000E-02  8.0000E-02  8.0000E-02  8.0000E-02  8.0000E-02  8.0000E-02  8.0000E-02  8.0000E-02
       8.0000E-02  8.0000E-02  8.0000E-02  8.0000E-02  8.0000E-02  9.0000E-02  9.0000E-02  9.0000E-02  9.0000E-02  9.0000E-02
       9.0000E-02  9.0000E-02  9.0000E-02  9.0000E-02  9.0000E-02  8.0000E-02   0.000       0.000       0.000       0.000    
        0.000    
  67    0.000       0.000       0.000       0.000       0.000       0.000       0.000       0.000       0.000       0.000    
        0.000       0.000       0.000       0.000       0.000       0.000       0.000       0.000       0.000       0.000    
        0.000       0.000       0.000       0.000       0.000       0.000       0.000       0.000       0.000       0.000    
        0.000       0.000       0.000       0.000       0.000       0.000       0.000       0.000       0.000       0.000    
        0.000       0.000       0.000       0.000       0.000       0.000       0.000       0.000       0.000      8.0000E-02
       8.0000E-02  8.0000E-02  8.0000E-02  8.0000E-02  8.0000E-02  8.0000E-02  8.0000E-02  8.0000E-02  8.0000E-02  8.0000E-02
       8.0000E-02  8.0000E-02  8.0000E-02  8.0000E-02  8.0000E-02  9.0000E-02  9.0000E-02  9.0000E-02  9.0000E-02  9.0000E-02
       9.0000E-02  9.0000E-02  9.0000E-02  9.0000E-02  8.0000E-02  8.0000E-02   0.000       0.000       0.000       0.000    
        0.000    
  68    0.000       0.000       0.000       0.000       0.000       0.000       0.000       0.000       0.000       0.000    
        0.000       0.000       0.000       0.000       0.000       0.000       0.000       0.000       0.000       0.000    
        0.000       0.000       0.000       0.000       0.000       0.000       0.000       0.000       0.000       0.000    
        0.000       0.000       0.000       0.000       0.000       0.000       0.000       0.000       0.000       0.000    
        0.000       0.000       0.000       0.000       0.000       0.000       0.000       0.000       0.000       0.000    
       8.0000E-02  8.0000E-02  8.0000E-02  8.0000E-02  8.0000E-02  8.0000E-02  8.0000E-02  8.0000E-02  8.0000E-02  8.0000E-02
       8.0000E-02  8.0000E-02  8.0000E-02  8.0000E-02  8.0000E-02  9.0000E-02  9.0000E-02  9.0000E-02  9.0000E-02  9.0000E-02
       9.0000E-02  9.0000E-02  9.0000E-02  9.0000E-02  8.0000E-02  8.0000E-02   0.000       0.000       0.000       0.000    
        0.000    
  69    0.000       0.000       0.000       0.000       0.000       0.000       0.000       0.000       0.000       0.000    
        0.000       0.000       0.000       0.000       0.000       0.000       0.000       0.000       0.000       0.000    
        0.000       0.000       0.000       0.000       0.000       0.000       0.000       0.000       0.000       0.000    
        0.000       0.000       0.000       0.000       0.000       0.000       0.000       0.000       0.000       0.000    
        0.000       0.000       0.000       0.000       0.000       0.000       0.000       0.000       0.000       0.000    
        0.000       0.000       0.000       0.000       0.000       0.000      8.0000E-02  8.0000E-02  8.0000E-02  8.0000E-02
       8.0000E-02  8.0000E-02  8.0000E-02  8.0000E-02  9.0000E-02  9.0000E-02  9.0000E-02  9.0000E-02  9.0000E-02  9.0000E-02
       9.0000E-02  9.0000E-02  9.0000E-02  9.0000E-02  8.0000E-02  8.0000E-02   0.000       0.000       0.000       0.000    
        0.000    
  70    0.000       0.000       0.000       0.000       0.000       0.000       0.000       0.000       0.000       0.000    
        0.000       0.000       0.000       0.000       0.000       0.000       0.000       0.000       0.000       0.000    
        0.000       0.000       0.000       0.000       0.000       0.000       0.000       0.000       0.000       0.000    
        0.000       0.000       0.000       0.000       0.000       0.000       0.000       0.000       0.000       0.000    
        0.000       0.000       0.000       0.000       0.000       0.000       0.000       0.000       0.000       0.000    
        0.000       0.000       0.000       0.000       0.000       0.000      8.0000E-02  8.0000E-02  8.0000E-02  8.0000E-02
       8.0000E-02  9.0000E-02  9.0000E-02  9.0000E-02  9.0000E-02  9.0000E-02  9.0000E-02  9.0000E-02  9.0000E-02  9.0000E-02
       9.0000E-02  9.0000E-02  9.0000E-02  9.0000E-02  8.0000E-02   0.000       0.000       0.000       0.000       0.000    
        0.000    
  71    0.000       0.000       0.000       0.000       0.000       0.000       0.000       0.000       0.000       0.000    
        0.000       0.000       0.000       0.000       0.000       0.000       0.000       0.000       0.000       0.000    
        0.000       0.000       0.000       0.000       0.000       0.000       0.000       0.000       0.000       0.000    
        0.000       0.000       0.000       0.000       0.000       0.000       0.000       0.000       0.000       0.000    
        0.000       0.000       0.000       0.000       0.000       0.000       0.000       0.000       0.000       0.000    
        0.000       0.000       0.000       0.000       0.000       0.000       0.000      8.0000E-02  8.0000E-02  8.0000E-02
       9.0000E-02  9.0000E-02  9.0000E-02  9.0000E-02   0.000       0.000       0.000       0.000       0.000       0.000    
        0.000       0.000       0.000       0.000      8.0000E-02   0.000       0.000       0.000       0.000       0.000    
        0.000    
  72    0.000       0.000       0.000       0.000       0.000       0.000       0.000       0.000       0.000       0.000    
        0.000       0.000       0.000       0.000       0.000       0.000       0.000       0.000       0.000       0.000    
        0.000       0.000       0.000       0.000       0.000       0.000       0.000       0.000       0.000       0.000    
        0.000       0.000       0.000       0.000       0.000       0.000       0.000       0.000       0.000       0.000    
        0.000       0.000       0.000       0.000       0.000       0.000       0.000       0.000       0.000       0.000    
        0.000       0.000       0.000       0.000       0.000       0.000       0.000       0.000      8.0000E-02  8.0000E-02
       9.0000E-02  9.0000E-02   0.000       0.000       0.000       0.000       0.000       0.000       0.000       0.000    
        0.000       0.000       0.000       0.000       0.000       0.000       0.000       0.000       0.000       0.000    
        0.000    
  73    0.000       0.000       0.000       0.000       0.000       0.000       0.000       0.000       0.000       0.000    
        0.000       0.000       0.000       0.000       0.000       0.000       0.000       0.000       0.000       0.000    
        0.000       0.000       0.000       0.000       0.000       0.000       0.000       0.000       0.000       0.000    
        0.000       0.000       0.000       0.000       0.000       0.000       0.000       0.000       0.000       0.000    
        0.000       0.000       0.000       0.000       0.000       0.000       0.000       0.000       0.000       0.000    
        0.000       0.000       0.000       0.000       0.000       0.000       0.000       0.000      8.0000E-02  8.0000E-02
       9.0000E-02   0.000       0.000       0.000       0.000       0.000       0.000       0.000       0.000       0.000    
        0.000       0.000       0.000       0.000       0.000       0.000       0.000       0.000       0.000       0.000    
        0.000    



                   WETDRY PARAMETER FOR LAYER   1
 READING ON UNIT   12 WITH FORMAT: (FREE)              

            1           2           3           4           5           6           7           8           9          10
           11          12          13          14          15          16          17          18          19          20
           21          22          23          24          25          26          27          28          29          30
           31          32          33          34          35          36          37          38          39          40
           41          42          43          44          45          46          47          48          49          50
           51          52          53          54          55          56          57          58          59          60
           61          62          63          64          65          66          67          68          69          70
           71          72          73          74          75          76          77          78          79          80
           81
 ........................................................................................................................
   1    0.000       0.000       0.000       0.000       0.000       0.000       0.000       0.000       0.000       0.000    
        0.000       0.000       0.000       0.000       0.000       0.000       0.000       0.000       0.000       0.000    
        0.000       0.000       0.000       0.000       0.000       0.000       0.000       0.000       0.000       0.000    
        0.000       0.000       0.000       0.000       0.000       0.000       0.000       0.000       0.000       0.000    
        0.000       0.000       0.000       0.000       0.000       0.000       0.000       0.000       0.000       0.000    
        0.000       0.000       0.000       0.000       0.000       0.000       0.000       0.000       0.000       0.000    
        0.000       0.000       0.000      9.0000E-02  9.0000E-02   0.000       0.000       0.000       0.000       0.000    
        0.000       0.000       0.000       0.000       0.000       0.000       0.000       0.000       0.000       0.000    
        0.000    
   2    0.000       0.000       0.000       0.000       0.000       0.000       0.000       0.000       0.000       0.000    
        0.000       0.000       0.000       0.000       0.000       0.000       0.000       0.000       0.000       0.000    
        0.000       0.000       0.000       0.000       0.000       0.000       0.000       0.000       0.000       0.000    
        0.000       0.000       0.000       0.000       0.000       0.000       0.000       0.000       0.000       0.000    
        0.000       0.000       0.000       0.000       0.000       0.000       0.000       0.000       0.000       0.000    
        0.000       0.000       0.000       0.000       0.000       0.000       0.000       0.000       0.000       0.000    
        0.000       0.000      9.0000E-02  9.0000E-02  9.0000E-02   0.000       0.000       0.000       0.000       0.000    
        0.000       0.000       0.000       0.000       0.000       0.000       0.000       0.000       0.000       0.000    
        0.000    
   3    0.000       0.000       0.000       0.000       0.000       0.000       0.000       0.000       0.000       0.000    
        0.000       0.000       0.000       0.000       0.000       0.000       0.000       0.000       0.000       0.000    
        0.000       0.000       0.000       0.000       0.000       0.000       0.000       0.000       0.000       0.000    
        0.000       0.000       0.000       0.000       0.000       0.000       0.000       0.000       0.000       0.000    
        0.000       0.000       0.000       0.000       0.000       0.000       0.000       0.000       0.000       0.000    
        0.000       0.000       0.000       0.000       0.000       0.000       0.000       0.000       0.000       0.000    
        0.000       0.000      9.0000E-02  9.0000E-02  0.1500       0.000       0.000       0.000       0.000       0.000    
        0.000       0.000       0.000       0.000       0.000       0.000       0.000       0.000       0.000       0.000    
        0.000    
   4    0.000       0.000       0.000       0.000       0.000       0.000       0.000       0.000       0.000       0.000    
        0.000       0.000       0.000       0.000       0.000       0.000       0.000       0.000       0.000       0.000    
        0.000       0.000       0.000       0.000       0.000       0.000       0.000       0.000       0.000       0.000    
        0.000       0.000       0.000       0.000       0.000       0.000       0.000       0.000       0.000       0.000    
        0.000       0.000       0.000       0.000       0.000       0.000       0.000       0.000       0.000       0.000    
        0.000       0.000       0.000       0.000       0.000       0.000       0.000       0.000       0.000       0.000    
        0.000      9.0000E-02  9.0000E-02  9.0000E-02  0.1500       0.000       0.000       0.000       0.000       0.000    
        0.000       0.000       0.000       0.000       0.000       0.000       0.000       0.000       0.000       0.000    
        0.000    
   5    0.000       0.000       0.000       0.000       0.000       0.000       0.000       0.000       0.000       0.000    
        0.000       0.000       0.000       0.000       0.000       0.000       0.000       0.000       0.000       0.000    
        0.000       0.000       0.000       0.000       0.000       0.000       0.000       0.000       0.000       0.000    
        0.000       0.000       0.000       0.000       0.000       0.000       0.000       0.000       0.000       0.000    
        0.000       0.000       0.000       0.000       0.000       0.000       0.000       0.000       0.000       0.000    
        0.000       0.000       0.000       0.000       0.000       0.000       0.000       0.000       0.000       0.000    
        0.000      9.0000E-02  9.0000E-02  9.0000E-02  0.1500      9.0000E-02   0.000       0.000       0.000       0.000    
        0.000       0.000       0.000       0.000       0.000       0.000       0.000       0.000       0.000       0.000    
        0.000    
   6    0.000       0.000       0.000       0.000       0.000       0.000       0.000       0.000       0.000       0.000    
        0.000       0.000       0.000       0.000       0.000       0.000       0.000       0.000       0.000       0.000    
        0.000       0.000       0.000       0.000       0.000       0.000       0.000       0.000       0.000       0.000    
        0.000       0.000       0.000       0.000       0.000       0.000       0.000       0.000       0.000       0.000    
        0.000       0.000       0.000       0.000       0.000       0.000       0.000       0.000       0.000       0.000    
        0.000       0.000       0.000       0.000       0.000       0.000       0.000       0.000       0.000       0.000    
        0.000      9.0000E-02  9.0000E-02  9.0000E-02  0.1500      0.1500      9.0000E-02   0.000       0.000       0.000    
        0.000       0.000       0.000       0.000       0.000       0.000       0.000       0.000       0.000       0.000    
        0.000    
   7    0.000       0.000       0.000       0.000       0.000       0.000       0.000       0.000       0.000       0.000    
        0.000       0.000       0.000       0.000       0.000       0.000       0.000       0.000       0.000       0.000    
        0.000       0.000       0.000       0.000       0.000       0.000       0.000       0.000       0.000       0.000    
        0.000       0.000       0.000       0.000       0.000       0.000       0.000       0.000       0.000       0.000    
        0.000       0.000       0.000       0.000       0.000       0.000       0.000       0.000       0.000       0.000    
        0.000       0.000       0.000       0.000       0.000       0.000       0.000       0.000       0.000       0.000    
       9.0000E-02  9.0000E-02  9.0000E-02  9.0000E-02  0.1500      0.1500      0.1500      9.0000E-02   0.000       0.000    
        0.000       0.000       0.000       0.000       0.000       0.000       0.000       0.000       0.000       0.000    
        0.000    
   8    0.000       0.000       0.000       0.000       0.000       0.000       0.000       0.000       0.000       0.000    
        0.000       0.000       0.000       0.000       0.000       0.000       0.000       0.000       0.000       0.000    
        0.000       0.000       0.000       0.000       0.000       0.000       0.000       0.000       0.000       0.000    
        0.000       0.000       0.000       0.000       0.000       0.000       0.000       0.000       0.000       0.000    
        0.000       0.000       0.000       0.000       0.000       0.000       0.000       0.000       0.000       0.000    
        0.000       0.000       0.000       0.000       0.000       0.000       0.000       0.000       0.000       0.000    
       9.0000E-02  9.0000E-02  9.0000E-02  9.0000E-02  0.1500      0.1500      0.1500      9.0000E-02  9.0000E-02  9.0000E-02
       9.0000E-02   0.000       0.000       0.000       0.000       0.000       0.000       0.000       0.000       0.000    
        0.000    
   9    0.000       0.000       0.000       0.000       0.000       0.000       0.000       0.000       0.000       0.000    
        0.000       0.000       0.000       0.000       0.000       0.000       0.000       0.000       0.000       0.000    
        0.000       0.000       0.000       0.000       0.000       0.000       0.000       0.000       0.000       0.000    
        0.000       0.000       0.000       0.000       0.000       0.000       0.000       0.000       0.000       0.000    
        0.000       0.000       0.000       0.000       0.000       0.000       0.000       0.000      8.0000E-02  8.0000E-02
        0.000       0.000       0.000       0.000       0.000       0.000       0.000       0.000      9.0000E-02  9.0000E-02
       9.0000E-02  9.0000E-02  9.0000E-02  9.0000E-02  0.1500      0.1500      0.1500      9.0000E-02  9.0000E-02  9.0000E-02
       9.0000E-02  9.0000E-02  9.0000E-02  9.0000E-02  9.0000E-02   0.000       0.000       0.000       0.000       0.000    
        0.000    
  10    0.000       0.000       0.000       0.000       0.000       0.000       0.000       0.000       0.000       0.000    
        0.000       0.000       0.000       0.000       0.000       0.000       0.000       0.000       0.000       0.000    
        0.000       0.000       0.000       0.000       0.000       0.000       0.000       0.000       0.000       0.000    
        0.000       0.000       0.000       0.000       0.000       0.000       0.000       0.000       0.000       0.000    
        0.000       0.000       0.000       0.000       0.000       0.000       0.000      8.0000E-02  8.0000E-02  8.0000E-02
       8.0000E-02  8.0000E-02  8.0000E-02   0.000       0.000       0.000      8.0000E-02  9.0000E-02  9.0000E-02  9.0000E-02
       9.0000E-02  9.0000E-02  9.0000E-02  9.0000E-02  0.1500      0.1500      0.1500      9.0000E-02  9.0000E-02  9.0000E-02
       9.0000E-02  9.0000E-02  9.0000E-02  9.0000E-02  9.0000E-02  9.0000E-02   0.000       0.000       0.000       0.000    
        0.000    
  11    0.000       0.000       0.000       0.000       0.000       0.000       0.000       0.000       0.000       0.000    
        0.000       0.000       0.000       0.000       0.000       0.000       0.000       0.000       0.000       0.000    
        0.000       0.000       0.000       0.000       0.000       0.000       0.000       0.000       0.000       0.000    
        0.000       0.000       0.000       0.000       0.000       0.000       0.000       0.000       0.000       0.000    
        0.000       0.000       0.000       0.000       0.000       0.000      8.0000E-02  8.0000E-02  8.0000E-02  8.0000E-02
       8.0000E-02  8.0000E-02  8.0000E-02  8.0000E-02  8.0000E-02  8.0000E-02  8.0000E-02  9.0000E-02  9.0000E-02  9.0000E-02
       9.0000E-02  9.0000E-02  9.0000E-02  9.0000E-02  0.1500      0.1500      0.1500      9.0000E-02  9.0000E-02  9.0000E-02
       9.0000E-02  9.0000E-02  9.0000E-02  9.0000E-02  9.0000E-02  9.0000E-02   0.000       0.000       0.000       0.000    
        0.000    
  12    0.000       0.000       0.000       0.000       0.000       0.000       0.000       0.000       0.000       0.000    
        0.000       0.000       0.000       0.000       0.000       0.000       0.000       0.000       0.000       0.000    
        0.000       0.000       0.000       0.000       0.000       0.000       0.000       0.000       0.000       0.000    
        0.000       0.000       0.000       0.000       0.000       0.000       0.000       0.000       0.000       0.000    
        0.000       0.000       0.000       0.000       0.000       0.000      8.0000E-02  8.0000E-02  8.0000E-02  9.0000E-02
       9.0000E-02  9.0000E-02  9.0000E-02  9.0000E-02  9.0000E-02  9.0000E-02  9.0000E-02  9.0000E-02  9.0000E-02  9.0000E-02
       9.0000E-02  9.0000E-02  9.0000E-02  9.0000E-02  0.1500      0.1500      0.1500      9.0000E-02  9.0000E-02  9.0000E-02
       9.0000E-02  9.0000E-02  9.0000E-02  9.0000E-02  9.0000E-02  9.0000E-02  9.0000E-02   0.000       0.000       0.000    
        0.000    
  13    0.000       0.000       0.000       0.000       0.000       0.000       0.000       0.000       0.000       0.000    
        0.000       0.000       0.000       0.000       0.000       0.000       0.000       0.000       0.000       0.000    
        0.000       0.000       0.000       0.000       0.000       0.000       0.000       0.000       0.000       0.000    
        0.000       0.000       0.000       0.000       0.000       0.000       0.000       0.000       0.000       0.000    
        0.000       0.000       0.000       0.000      8.0000E-02  8.0000E-02  8.0000E-02  8.0000E-02  8.0000E-02  9.0000E-02
       9.0000E-02  9.0000E-02  9.0000E-02  9.0000E-02  9.0000E-02  9.0000E-02  9.0000E-02  9.0000E-02  9.0000E-02  9.0000E-02
       9.0000E-02  9.0000E-02  9.0000E-02  9.0000E-02  0.1500      0.1500      0.1500      9.0000E-02  9.0000E-02  9.0000E-02
       9.0000E-02  9.0000E-02  9.0000E-02  9.0000E-02  9.0000E-02  9.0000E-02  9.0000E-02  9.0000E-02   0.000       0.000    
        0.000    
  14    0.000       0.000       0.000       0.000       0.000       0.000       0.000       0.000       0.000       0.000    
        0.000       0.000       0.000       0.000       0.000       0.000       0.000       0.000       0.000       0.000    
        0.000       0.000       0.000       0.000       0.000       0.000       0.000       0.000       0.000       0.000    
        0.000       0.000       0.000       0.000       0.000       0.000       0.000       0.000       0.000       0.000    
        0.000      8.0000E-02  8.0000E-02  8.0000E-02  8.0000E-02  8.0000E-02  8.0000E-02  8.0000E-02  8.0000E-02  9.0000E-02
       9.0000E-02  9.0000E-02  9.0000E-02  9.0000E-02  9.0000E-02  9.0000E-02  9.0000E-02  9.0000E-02  9.0000E-02  9.0000E-02
       9.0000E-02  9.0000E-02  9.0000E-02  9.0000E-02  0.1500      0.1500      0.1500      9.0000E-02  9.0000E-02  9.0000E-02
       9.0000E-02  9.0000E-02  9.0000E-02  9.0000E-02  9.0000E-02  9.0000E-02  9.0000E-02  9.0000E-02  9.0000E-02   0.000    
        0.000    
  15    0.000       0.000       0.000       0.000       0.000       0.000       0.000       0.000       0.000       0.000    
        0.000       0.000       0.000       0.000       0.000       0.000       0.000       0.000       0.000       0.000    
        0.000       0.000       0.000       0.000       0.000       0.000       0.000       0.000       0.000       0.000    
        0.000       0.000       0.000       0.000       0.000       0.000       0.000       0.000       0.000       0.000    
       8.0000E-02  8.0000E-02  8.0000E-02  8.0000E-02  8.0000E-02  8.0000E-02  8.0000E-02  8.0000E-02  8.0000E-02  8.0000E-02
       8.0000E-02  9.0000E-02  9.0000E-02  9.0000E-02  9.0000E-02  9.0000E-02  9.0000E-02  9.0000E-02  9.0000E-02  9.0000E-02
       9.0000E-02  9.0000E-02  9.0000E-02  9.0000E-02  0.1500      0.1500      0.1500      0.1500      9.0000E-02  9.0000E-02
       9.0000E-02  9.0000E-02  9.0000E-02  9.0000E-02  9.0000E-02  9.0000E-02  9.0000E-02  9.0000E-02  9.0000E-02  9.0000E-02
        0.000    
  16    0.000       0.000       0.000       0.000       0.000       0.000       0.000       0.000       0.000       0.000    
        0.000       0.000       0.000       0.000       0.000       0.000       0.000       0.000       0.000       0.000    
        0.000       0.000       0.000       0.000       0.000       0.000       0.000       0.000       0.000       0.000    
        0.000       0.000       0.000       0.000       0.000       0.000       0.000       0.000       0.000      8.0000E-02
       8.0000E-02  8.0000E-02  8.0000E-02  8.0000E-02  8.0000E-02  8.0000E-02  8.0000E-02  8.0000E-02  8.0000E-02  8.0000E-02
       8.0000E-02  8.0000E-02  9.0000E-02  9.0000E-02  9.0000E-02  9.0000E-02  9.0000E-02  9.0000E-02  9.0000E-02  9.0000E-02
       9.0000E-02  9.0000E-02  9.0000E-02  9.0000E-02  0.1500      0.1500      0.1500      0.1500      0.1500      9.0000E-02
       9.0000E-02  9.0000E-02  9.0000E-02  9.0000E-02  9.0000E-02  9.0000E-02  9.0000E-02  9.0000E-02  9.0000E-02  9.0000E-02
        0.000    
  17    0.000       0.000       0.000       0.000       0.000       0.000       0.000       0.000       0.000       0.000    
        0.000       0.000       0.000       0.000       0.000       0.000       0.000       0.000       0.000       0.000    
        0.000       0.000       0.000       0.000       0.000       0.000       0.000       0.000       0.000       0.000    
        0.000       0.000       0.000       0.000       0.000       0.000       0.000       0.000       0.000      8.0000E-02
       8.0000E-02  8.0000E-02  8.0000E-02  8.0000E-02  8.0000E-02  8.0000E-02  8.0000E-02  8.0000E-02  8.0000E-02  8.0000E-02
       8.0000E-02  8.0000E-02  9.0000E-02  9.0000E-02  9.0000E-02  9.0000E-02  9.0000E-02  9.0000E-02  9.0000E-02  9.0000E-02
       9.0000E-02  9.0000E-02  9.0000E-02  9.0000E-02  0.1500      0.1500      0.1500      0.1500      0.1500      0.1500    
       0.1500      0.1500      0.1500      0.1500      0.1500      0.1500      9.0000E-02  9.0000E-02  9.0000E-02  9.0000E-02
        0.000    
  18    0.000       0.000       0.000       0.000       0.000       0.000       0.000       0.000       0.000       0.000    
        0.000       0.000       0.000       0.000       0.000       0.000       0.000       0.000       0.000       0.000    
        0.000       0.000       0.000       0.000       0.000       0.000       0.000       0.000       0.000       0.000    
        0.000       0.000       0.000       0.000       0.000       0.000       0.000       0.000       0.000      8.0000E-02
       8.0000E-02  8.0000E-02  8.0000E-02  8.0000E-02  8.0000E-02  8.0000E-02  8.0000E-02  8.0000E-02  8.0000E-02  8.0000E-02
       8.0000E-02  8.0000E-02  9.0000E-02  9.0000E-02  9.0000E-02  9.0000E-02  9.0000E-02  9.0000E-02  9.0000E-02  9.0000E-02
       9.0000E-02  9.0000E-02  9.0000E-02  9.0000E-02  0.1500      0.1500      0.1500      0.1500      0.1500      0.1500    
       0.1500      0.1500      0.1500      0.1500      0.1500      0.1500      0.1500      9.0000E-02  9.0000E-02  9.0000E-02
        0.000    
  19    0.000       0.000       0.000       0.000       0.000       0.000       0.000       0.000       0.000       0.000    
        0.000       0.000       0.000       0.000       0.000       0.000       0.000       0.000       0.000       0.000    
        0.000       0.000       0.000       0.000       0.000       0.000       0.000       0.000       0.000       0.000    
        0.000       0.000       0.000       0.000      8.0000E-02  8.0000E-02  8.0000E-02  8.0000E-02  8.0000E-02  8.0000E-02
       8.0000E-02  8.0000E-02  8.0000E-02  8.0000E-02  8.0000E-02  8.0000E-02  8.0000E-02  8.0000E-02  8.0000E-02  8.0000E-02
       8.0000E-02  8.0000E-02  9.0000E-02  9.0000E-02  9.0000E-02  9.0000E-02  9.0000E-02  9.0000E-02  9.0000E-02  9.0000E-02
       9.0000E-02  9.0000E-02  9.0000E-02  9.0000E-02  0.1500      0.1500      0.1500      0.1500      0.1500      0.1500    
       0.1500      0.1500      0.1500      0.1500      0.1500      0.1500      0.1500      9.0000E-02  9.0000E-02  9.0000E-02
       9.0000E-02
  20    0.000       0.000       0.000       0.000       0.000       0.000       0.000       0.000       0.000       0.000    
        0.000       0.000       0.000       0.000       0.000       0.000       0.000       0.000       0.000       0.000    
        0.000       0.000       0.000       0.000       0.000       0.000       0.000       0.000       0.000       0.000    
        0.000       0.000      8.0000E-02  8.0000E-02  8.0000E-02  8.0000E-02  8.0000E-02  8.0000E-02  8.0000E-02  8.0000E-02
       8.0000E-02  8.0000E-02  8.0000E-02  8.0000E-02  8.0000E-02  8.0000E-02  8.0000E-02  8.0000E-02  8.0000E-02  8.0000E-02
       8.0000E-02  8.0000E-02  9.0000E-02  9.0000E-02  9.0000E-02  9.0000E-02  9.0000E-02  9.0000E-02  9.0000E-02  9.0000E-02
       9.0000E-02  9.0000E-02  9.0000E-02  9.0000E-02  0.1500      0.1500      0.1500      0.1500      0.1500      0.1500    
       0.1500      0.1500      0.1500      0.1500      0.1500      0.1500      0.1500      9.0000E-02  9.0000E-02  9.0000E-02
       9.0000E-02
  21    0.000       0.000       0.000       0.000       0.000       0.000       0.000       0.000       0.000       0.000    
        0.000       0.000       0.000       0.000       0.000       0.000       0.000       0.000       0.000       0.000    
        0.000       0.000       0.000       0.000       0.000       0.000       0.000       0.000       0.000      8.0000E-02
       8.0000E-02  8.0000E-02  8.0000E-02  8.0000E-02  8.0000E-02  8.0000E-02  8.0000E-02  8.0000E-02  8.0000E-02  8.0000E-02
       8.0000E-02  8.0000E-02  8.0000E-02  8.0000E-02  8.0000E-02  8.0000E-02  8.0000E-02  8.0000E-02  8.0000E-02  8.0000E-02
       8.0000E-02  8.0000E-02  9.0000E-02  9.0000E-02  0.1500      9.0000E-02  9.0000E-02  9.0000E-02  9.0000E-02  9.0000E-02
       9.0000E-02  9.0000E-02  9.0000E-02  9.0000E-02  9.0000E-02  0.1500      0.1500      0.1500      0.1500      0.1500    
       0.1500      0.1500      0.1500      0.1500      0.1500      0.1500      0.1500      9.0000E-02  9.0000E-02  9.0000E-02
       9.0000E-02
  22    0.000       0.000       0.000       0.000       0.000       0.000       0.000       0.000       0.000       0.000    
        0.000       0.000       0.000       0.000       0.000       0.000       0.000       0.000       0.000       0.000    
        0.000       0.000       0.000       0.000       0.000       0.000      8.0000E-02  8.0000E-02  8.0000E-02  8.0000E-02
       8.0000E-02  8.0000E-02  8.0000E-02  8.0000E-02  8.0000E-02  8.0000E-02  8.0000E-02  8.0000E-02  8.0000E-02  8.0000E-02
       8.0000E-02  8.0000E-02  8.0000E-02  8.0000E-02  8.0000E-02  8.0000E-02  8.0000E-02  8.0000E-02  8.0000E-02  8.0000E-02
       8.0000E-02  9.0000E-02  9.0000E-02  9.0000E-02  0.1500      9.0000E-02  9.0000E-02  9.0000E-02  9.0000E-02  9.0000E-02
       9.0000E-02  9.0000E-02  9.0000E-02  9.0000E-02  9.0000E-02  9.0000E-02  0.1500      0.1500      0.1500      0.1500    
       0.1500      0.1500      0.1500      0.1500      0.1500      0.1500      0.1500      9.0000E-02  9.0000E-02  9.0000E-02
       9.0000E-02
  23    0.000       0.000       0.000       0.000       0.000       0.000       0.000       0.000       0.000       0.000    
        0.000       0.000       0.000       0.000       0.000       0.000       0.000       0.000       0.000       0.000    
        0.000       0.000       0.000       0.000      8.0000E-02  8.0000E-02  8.0000E-02  8.0000E-02  8.0000E-02  8.0000E-02
       8.0000E-02  8.0000E-02  8.0000E-02  8.0000E-02  8.0000E-02  8.0000E-02  8.0000E-02  8.0000E-02  8.0000E-02  8.0000E-02
       8.0000E-02  8.0000E-02  8.0000E-02  8.0000E-02  8.0000E-02  8.0000E-02  8.0000E-02  8.0000E-02  9.0000E-02  9.0000E-02
       9.0000E-02  9.0000E-02  9.0000E-02  9.0000E-02  0.1500      9.0000E-02  9.0000E-02  9.0000E-02  9.0000E-02  9.0000E-02
       9.0000E-02  9.0000E-02  9.0000E-02  9.0000E-02  9.0000E-02  9.0000E-02  9.0000E-02  9.0000E-02  0.1500      0.1500    
       0.1500      0.1500      0.1500      0.1500      0.1500      0.1500      0.1500      9.0000E-02  9.0000E-02  9.0000E-02
       9.0000E-02
  24    0.000       0.000       0.000       0.000       0.000       0.000       0.000       0.000       0.000       0.000    
        0.000       0.000       0.000       0.000       0.000       0.000       0.000       0.000       0.000       0.000    
        0.000       0.000      8.0000E-02  8.0000E-02  8.0000E-02  8.0000E-02  8.0000E-02  8.0000E-02  8.0000E-02  8.0000E-02
       8.0000E-02  8.0000E-02  8.0000E-02  8.0000E-02  8.0000E-02  8.0000E-02  8.0000E-02  8.0000E-02  8.0000E-02  8.0000E-02
       8.0000E-02  8.0000E-02  8.0000E-02  8.0000E-02  9.0000E-02  9.0000E-02  9.0000E-02  9.0000E-02  9.0000E-02  9.0000E-02
       9.0000E-02  9.0000E-02  9.0000E-02  9.0000E-02  0.1500      9.0000E-02  9.0000E-02  9.0000E-02  9.0000E-02  9.0000E-02
       9.0000E-02  9.0000E-02  9.0000E-02  9.0000E-02  9.0000E-02  9.0000E-02  9.0000E-02  9.0000E-02  9.0000E-02  0.1500    
       0.1500      0.1500      0.1500      0.1500      0.1500      0.1500      9.0000E-02  9.0000E-02  9.0000E-02  9.0000E-02
       9.0000E-02
  25    0.000       0.000       0.000       0.000       0.000       0.000       0.000       0.000       0.000       0.000    
        0.000       0.000       0.000       0.000       0.000       0.000       0.000       0.000       0.000       0.000    
       8.0000E-02  8.0000E-02  8.0000E-02  8.0000E-02  8.0000E-02  8.0000E-02  8.0000E-02  8.0000E-02  8.0000E-02  8.0000E-02
       8.0000E-02  8.0000E-02  8.0000E-02  8.0000E-02  8.0000E-02  8.0000E-02  8.0000E-02  8.0000E-02  8.0000E-02  8.0000E-02
       8.0000E-02  8.0000E-02  8.0000E-02  9.0000E-02  9.0000E-02  9.0000E-02  9.0000E-02  9.0000E-02  9.0000E-02  9.0000E-02
       9.0000E-02  9.0000E-02  9.0000E-02  9.0000E-02  0.1500      0.1500      9.0000E-02  9.0000E-02  9.0000E-02  9.0000E-02
       9.0000E-02  9.0000E-02  9.0000E-02  9.0000E-02  9.0000E-02  9.0000E-02  9.0000E-02  9.0000E-02  9.0000E-02  0.1500    
       0.1500      0.1500      0.1500      0.1500      0.1500      9.0000E-02  9.0000E-02  9.0000E-02  9.0000E-02  9.0000E-02
        0.000    
  26    0.000       0.000       0.000       0.000       0.000       0.000       0.000       0.000       0.000       0.000    
        0.000       0.000       0.000       0.000       0.000       0.000       0.000       0.000      8.0000E-02  8.0000E-02
       8.0000E-02  8.0000E-02  8.0000E-02  8.0000E-02  8.0000E-02  8.0000E-02  8.0000E-02  8.0000E-02  8.0000E-02  8.0000E-02
       8.0000E-02  8.0000E-02  8.0000E-02  8.0000E-02  8.0000E-02  8.0000E-02  8.0000E-02  8.0000E-02  8.0000E-02  8.0000E-02
       8.0000E-02  8.0000E-02  9.0000E-02  9.0000E-02  9.0000E-02  9.0000E-02  9.0000E-02  9.0000E-02  9.0000E-02  9.0000E-02
       9.0000E-02  9.0000E-02  9.0000E-02  9.0000E-02  0.1500      0.1500      9.0000E-02  9.0000E-02  9.0000E-02  9.0000E-02
       9.0000E-02  9.0000E-02  9.0000E-02  9.0000E-02  9.0000E-02  9.0000E-02  9.0000E-02  9.0000E-02  9.0000E-02  9.0000E-02
       0.1500      0.1500      0.1500      0.1500      0.1500      9.0000E-02  9.0000E-02  9.0000E-02  9.0000E-02   0.000    
        0.000    
  27    0.000       0.000       0.000       0.000       0.000       0.000       0.000       0.000       0.000       0.000    
        0.000       0.000       0.000       0.000       0.000       0.000       0.000      8.0000E-02  8.0000E-02  8.0000E-02
       8.0000E-02  8.0000E-02  8.0000E-02  8.0000E-02  8.0000E-02  8.0000E-02  8.0000E-02  8.0000E-02  8.0000E-02  8.0000E-02
       8.0000E-02  8.0000E-02  8.0000E-02  8.0000E-02  8.0000E-02  8.0000E-02  8.0000E-02  8.0000E-02  8.0000E-02  8.0000E-02
       8.0000E-02  9.0000E-02  9.0000E-02  9.0000E-02  9.0000E-02  9.0000E-02  9.0000E-02  9.0000E-02  9.0000E-02  9.0000E-02
       9.0000E-02  9.0000E-02  9.0000E-02  9.0000E-02  0.1500      0.1500      9.0000E-02  9.0000E-02  9.0000E-02  9.0000E-02
       9.0000E-02  9.0000E-02  9.0000E-02  9.0000E-02  9.0000E-02  9.0000E-02  9.0000E-02  9.0000E-02  9.0000E-02  9.0000E-02
       9.0000E-02  0.1500      0.1500      0.1500      0.1500      9.0000E-02   0.000       0.000       0.000       0.000    
        0.000    
  28    0.000       0.000       0.000       0.000       0.000       0.000       0.000       0.000       0.000       0.000    
        0.000       0.000       0.000       0.000       0.000       0.000      8.0000E-02  8.0000E-02  8.0000E-02  8.0000E-02
       8.0000E-02  8.0000E-02  8.0000E-02  8.0000E-02  8.0000E-02  8.0000E-02  8.0000E-02  8.0000E-02  8.0000E-02  0.1500    
       0.1500      0.1500      0.1500      8.0000E-02  8.0000E-02  8.0000E-02  8.0000E-02  8.0000E-02  8.0000E-02  9.0000E-02
       9.0000E-02  9.0000E-02  9.0000E-02  9.0000E-02  9.0000E-02  9.0000E-02  9.0000E-02  9.0000E-02  9.0000E-02  9.0000E-02
       9.0000E-02  9.0000E-02  9.0000E-02  9.0000E-02  0.1500      0.1500      0.1500      9.0000E-02  9.0000E-02  9.0000E-02
       9.0000E-02  9.0000E-02  9.0000E-02  9.0000E-02  9.0000E-02  9.0000E-02  9.0000E-02  9.0000E-02  9.0000E-02  9.0000E-02
       9.0000E-02  0.1500      0.1500      0.1500      0.1500      9.0000E-02   0.000       0.000       0.000       0.000    
        0.000    
  29    0.000       0.000       0.000       0.000       0.000       0.000       0.000       0.000       0.000       0.000    
        0.000      8.0000E-02  8.0000E-02  8.0000E-02  8.0000E-02  8.0000E-02  8.0000E-02  8.0000E-02  8.0000E-02  8.0000E-02
       8.0000E-02  8.0000E-02  8.0000E-02  8.0000E-02  8.0000E-02  8.0000E-02  8.0000E-02  8.0000E-02  8.0000E-02  0.1500    
       0.1500      0.1500      0.1500      0.1500      0.1500      8.0000E-02  8.0000E-02  8.0000E-02  8.0000E-02  9.0000E-02
       9.0000E-02  0.1500      0.1500      0.1500      0.1500      0.1500      0.1500      9.0000E-02  9.0000E-02  9.0000E-02
       9.0000E-02  9.0000E-02  9.0000E-02  9.0000E-02  0.1500      0.1500      0.1500      9.0000E-02  9.0000E-02  9.0000E-02
       9.0000E-02  9.0000E-02  9.0000E-02  9.0000E-02  9.0000E-02  9.0000E-02  9.0000E-02  9.0000E-02  9.0000E-02  9.0000E-02
       9.0000E-02  0.1500      0.1500      0.1500      0.1500      9.0000E-02   0.000       0.000       0.000       0.000    
        0.000    
  30    0.000       0.000       0.000       0.000       0.000       0.000       0.000       0.000       0.000       0.000    
       8.0000E-02  8.0000E-02  8.0000E-02  8.0000E-02  8.0000E-02  8.0000E-02  0.1500      0.1500      0.1500      0.1500    
       0.1500      0.1500      0.1500      0.1500      0.1500      0.1500      0.1500      0.1500      0.1500      0.1500    
       0.1500      0.1500      0.1500      0.1500      0.1500      0.1500      0.1500      0.1500      0.1500      0.1500    
       0.1500      0.1500      0.1500      0.1500      0.1500      0.1500      0.1500      0.1500      0.1500      9.0000E-02
       9.0000E-02  9.0000E-02  9.0000E-02  9.0000E-02  0.1500      0.1500      0.1500      0.1500      0.1500      0.1500    
       9.0000E-02  9.0000E-02  9.0000E-02  9.0000E-02  9.0000E-02  9.0000E-02  9.0000E-02  9.0000E-02  9.0000E-02  9.0000E-02
       9.0000E-02  0.1500      0.1500      0.1500      0.1500      9.0000E-02   0.000       0.000       0.000       0.000    
        0.000    
  31    0.000       0.000       0.000       0.000       0.000       0.000       0.000       0.000       0.000      8.0000E-02
       8.0000E-02  8.0000E-02  8.0000E-02  8.0000E-02  8.0000E-02  8.0000E-02  0.1500      0.1500      0.1500      0.1500    
       0.1500      0.1500      0.1500      0.1500      0.1500      0.1500      0.1500      0.1500      0.1500      0.1500    
       0.1500      0.1500      0.1500      0.1500      0.1500      0.1500      0.1500      0.1500      0.1500      0.1500    
       0.1500      0.1500      0.1500      0.1500      0.1500      0.1500      0.1500      0.1500      0.1500      0.1500    
       0.1500      0.1500      0.1500      0.1500      0.1500      0.1500      0.1500      0.1500      0.1500      0.1500    
       9.0000E-02  9.0000E-02  9.0000E-02  9.0000E-02  9.0000E-02  9.0000E-02  9.0000E-02  9.0000E-02  9.0000E-02  9.0000E-02
       9.0000E-02  0.1500      0.1500      0.1500      0.1500      9.0000E-02   0.000       0.000       0.000       0.000    
        0.000    
  32    0.000       0.000       0.000       0.000       0.000       0.000       0.000       0.000      8.0000E-02  8.0000E-02
       8.0000E-02  8.0000E-02  8.0000E-02  8.0000E-02  8.0000E-02  8.0000E-02  8.0000E-02  8.0000E-02  8.0000E-02  8.0000E-02
       8.0000E-02  8.0000E-02  8.0000E-02  8.0000E-02  8.0000E-02  8.0000E-02  9.0000E-02  9.0000E-02  9.0000E-02  9.0000E-02
       9.0000E-02  9.0000E-02  0.1500      0.1500      0.1500      0.1500      0.1500      0.1500      0.1500      0.1500    
       0.1500      0.1500      0.1500      0.1500      0.1500      0.1500      0.1500      0.1500      0.1500      0.1500    
       0.1500      0.1500      0.1500      0.1500      0.1500      0.1500      0.1500      0.1500      0.1500      0.1500    
       9.0000E-02  9.0000E-02  9.0000E-02  9.0000E-02  9.0000E-02  9.0000E-02  9.0000E-02  9.0000E-02  9.0000E-02  9.0000E-02
       9.0000E-02  0.1500      0.1500      0.1500      0.1500      9.0000E-02   0.000       0.000       0.000       0.000    
        0.000    
  33    0.000       0.000       0.000       0.000       0.000       0.000       0.000       0.000      8.0000E-02  8.0000E-02
       8.0000E-02  8.0000E-02  8.0000E-02  8.0000E-02  8.0000E-02  8.0000E-02  8.0000E-02  8.0000E-02  8.0000E-02  8.0000E-02
       8.0000E-02  8.0000E-02  8.0000E-02  8.0000E-02  8.0000E-02  9.0000E-02  9.0000E-02  9.0000E-02  9.0000E-02  9.0000E-02
       9.0000E-02  9.0000E-02  0.1500      0.1500      0.1500      0.1500      0.1500      0.1500      0.1500      0.1500    
       0.1500      9.0000E-02  9.0000E-02  9.0000E-02  9.0000E-02  9.0000E-02  0.1500      0.1500      0.1500      0.1500    
       0.1500      0.1500      0.1500      0.1500      0.1500      0.1500      0.1500      0.1500      0.1500      0.1500    
       9.0000E-02  9.0000E-02  9.0000E-02  9.0000E-02  9.0000E-02  9.0000E-02  9.0000E-02  9.0000E-02  9.0000E-02  9.0000E-02
       9.0000E-02  0.1500      0.1500      0.1500      0.1500      9.0000E-02   0.000       0.000       0.000       0.000    
        0.000    
  34    0.000       0.000       0.000       0.000       0.000       0.000      8.0000E-02  8.0000E-02  8.0000E-02  8.0000E-02
       8.0000E-02  8.0000E-02  8.0000E-02  8.0000E-02  8.0000E-02  8.0000E-02  8.0000E-02  8.0000E-02  8.0000E-02  8.0000E-02
       8.0000E-02  8.0000E-02  9.0000E-02  9.0000E-02  9.0000E-02  9.0000E-02  9.0000E-02  9.0000E-02  9.0000E-02  9.0000E-02
       9.0000E-02  9.0000E-02  0.1500      0.1500      0.1500      0.1500      0.1500      0.1500      0.1500      0.1500    
       0.1500      9.0000E-02  9.0000E-02  9.0000E-02  9.0000E-02  9.0000E-02  0.1500      0.1500      0.1500      0.1500    
       0.1500      0.1500      0.1500      0.1500      0.1500      0.1500      0.1500      0.1500      0.1500      0.1500    
       9.0000E-02  9.0000E-02  9.0000E-02  9.0000E-02  9.0000E-02  9.0000E-02  9.0000E-02  9.0000E-02  9.0000E-02  9.0000E-02
       0.1500      0.1500      0.1500      0.1500      0.1500      9.0000E-02   0.000       0.000       0.000       0.000    
        0.000    
  35    0.000       0.000       0.000       0.000       0.000      8.0000E-02  8.0000E-02  8.0000E-02  8.0000E-02  8.0000E-02
       8.0000E-02  8.0000E-02  8.0000E-02  8.0000E-02  8.0000E-02  8.0000E-02  8.0000E-02  8.0000E-02  9.0000E-02  9.0000E-02
       9.0000E-02  9.0000E-02  9.0000E-02  9.0000E-02  9.0000E-02  0.1500      0.1500      9.0000E-02  9.0000E-02  9.0000E-02
       9.0000E-02  0.1500      0.1500      0.1500      0.1500      0.1500      0.1500      0.1500      0.1500      0.1500    
       0.1500      9.0000E-02  9.0000E-02  9.0000E-02  9.0000E-02  9.0000E-02  0.1500      0.1500      0.1500      0.1500    
       0.1500      0.1500      0.1500      0.1500      0.1500      0.1500      0.1500      0.1500      0.1500      0.1500    
       9.0000E-02  9.0000E-02  9.0000E-02  9.0000E-02  9.0000E-02  9.0000E-02  9.0000E-02  9.0000E-02  9.0000E-02  9.0000E-02
       0.1500      0.1500      0.1500      0.1500      0.1500      9.0000E-02   0.000       0.000       0.000       0.000    
        0.000    
  36    0.000       0.000       0.000       0.000       0.000      8.0000E-02  8.0000E-02  8.0000E-02  8.0000E-02  8.0000E-02
       8.0000E-02  8.0000E-02  8.0000E-02  8.0000E-02  0.1500      0.1500      0.1500      0.1500      0.1500      0.1500    
       0.1500      0.1500      0.1500      0.1500      0.1500      0.1500      0.1500      0.1500      0.1500      0.1500    
       0.1500      0.1500      0.1500      0.1500      0.1500      0.1500      0.1500      0.1500      0.1500      0.1500    
       0.1500      9.0000E-02  9.0000E-02  9.0000E-02  9.0000E-02  9.0000E-02  0.1500      0.1500      0.1500      9.0000E-02
       9.0000E-02  0.1500      0.1500      0.1500      0.1500      0.1500      0.1500      0.1500      0.1500      0.1500    
       0.1500      0.1500      0.1500      0.1500      0.1500      9.0000E-02  9.0000E-02  9.0000E-02  9.0000E-02  9.0000E-02
       0.1500      0.1500      0.1500      0.1500      0.1500      9.0000E-02   0.000       0.000       0.000       0.000    
        0.000    
  37    0.000       0.000       0.000       0.000       0.000      8.0000E-02  8.0000E-02  8.0000E-02  8.0000E-02  8.0000E-02
       8.0000E-02  8.0000E-02  8.0000E-02  0.1500      0.1500      0.1500      0.1500      0.1500      0.1500      0.1500    
       0.1500      0.1500      0.1500      0.1500      0.1500      0.1500      0.1500      0.1500      0.1500      0.1500    
       0.1500      0.1500      0.1500      0.1500      0.1500      0.1500      0.1500      0.1500      0.1500      0.1500    
       9.0000E-02  9.0000E-02  9.0000E-02  9.0000E-02  9.0000E-02  9.0000E-02  0.1500      0.1500      9.0000E-02  9.0000E-02
       9.0000E-02  0.1500      0.1500      0.1500      0.1500      0.1500      0.1500      0.1500      0.1500      0.1500    
       0.1500      0.1500      0.1500      0.1500      0.1500      0.1500      0.1500      0.1500      9.0000E-02  9.0000E-02
       0.1500      0.1500      0.1500      0.1500      0.1500      8.0000E-02   0.000       0.000       0.000       0.000    
        0.000    
  38    0.000       0.000       0.000       0.000       0.000      8.0000E-02  8.0000E-02  8.0000E-02  8.0000E-02  8.0000E-02
       8.0000E-02  8.0000E-02  8.0000E-02  0.1500      0.1500      0.1500      0.1500      0.1500      0.1500      0.1500    
       0.1500      0.1500      0.1500      0.1500      0.1500      0.1500      0.1500      0.1500      0.1500      0.1500    
       0.1500      0.1500      0.1500      0.1500      0.1500      0.1500      0.1500      0.1500      0.1500      0.1500    
       9.0000E-02  9.0000E-02  9.0000E-02  9.0000E-02  9.0000E-02  9.0000E-02  0.1500      0.1500      9.0000E-02  9.0000E-02
       9.0000E-02  9.0000E-02  0.1500      0.1500      0.1500      0.1500      0.1500      0.1500      0.1500      0.1500    
       0.1500      0.1500      0.1500      0.1500      0.1500      0.1500      0.1500      0.1500      0.1500      0.1500    
       0.1500      0.1500      0.1500      0.1500      0.1500      8.0000E-02  8.0000E-02   0.000       0.000       0.000    
        0.000    
  39    0.000       0.000       0.000       0.000       0.000      8.0000E-02  8.0000E-02  8.0000E-02  8.0000E-02  8.0000E-02
       8.0000E-02  8.0000E-02  0.1500      0.1500      0.1500      0.1500      0.1500      0.1500      0.1500      0.1500    
       0.1500      0.1500      0.1500      0.1500      0.1500      0.1500      0.1500      0.1500      0.1500      0.1500    
       0.1500      0.1500      0.1500      0.1500      0.1500      0.1500      0.1500      0.1500      0.1500      0.1500    
       9.0000E-02  9.0000E-02  9.0000E-02  9.0000E-02  9.0000E-02  9.0000E-02  0.1500      0.1500      9.0000E-02  9.0000E-02
       9.0000E-02  9.0000E-02  0.1500      0.1500      0.1500      0.1500      0.1500      0.1500      0.1500      0.1500    
       0.1500      0.1500      0.1500      0.1500      0.1500      0.1500      0.1500      0.1500      0.1500      0.1500    
       0.1500      0.1500      0.1500      0.1500      0.1500      8.0000E-02  8.0000E-02   0.000       0.000       0.000    
        0.000    
  40    0.000       0.000       0.000       0.000      8.0000E-02  8.0000E-02  8.0000E-02  8.0000E-02  8.0000E-02  8.0000E-02
       8.0000E-02  0.1500      0.1500      0.1500      0.1500      0.1500      0.1500      0.1500      0.1500      0.1500    
       0.1500      0.1500      0.1500      0.1500      0.1500      0.1500      0.1500      0.1500      0.1500      0.1500    
       0.1500      0.1500      0.1500      0.1500      0.1500      0.1500      0.1500      0.1500      0.1500      0.1500    
       9.0000E-02  9.0000E-02  9.0000E-02  9.0000E-02  9.0000E-02  9.0000E-02  0.1500      0.1500      9.0000E-02  9.0000E-02
       9.0000E-02  9.0000E-02  9.0000E-02  8.0000E-02  8.0000E-02  8.0000E-02  8.0000E-02  8.0000E-02  8.0000E-02  9.0000E-02
       0.1500      0.1500      0.1500      0.1500      0.1500      0.1500      0.1500      0.1500      0.1500      0.1500    
       0.1500      0.1500      0.1500      0.1500      0.1500      8.0000E-02  8.0000E-02  8.0000E-02   0.000       0.000    
        0.000    
  41    0.000       0.000       0.000       0.000      8.0000E-02  8.0000E-02  8.0000E-02  8.0000E-02  8.0000E-02  8.0000E-02
       8.0000E-02  0.1500      0.1500      0.1500      0.1500      0.1500      0.1500      9.0000E-02  9.0000E-02  9.0000E-02
       9.0000E-02  9.0000E-02  9.0000E-02  9.0000E-02  9.0000E-02  9.0000E-02  9.0000E-02  9.0000E-02  9.0000E-02  9.0000E-02
       9.0000E-02  9.0000E-02  0.1500      0.1500      0.1500      0.1500      0.1500      0.1500      0.1500      9.0000E-02
       8.0000E-02  8.0000E-02  8.0000E-02  8.0000E-02  8.0000E-02  8.0000E-02  0.1500      0.1500      9.0000E-02  9.0000E-02
       9.0000E-02  9.0000E-02  9.0000E-02  8.0000E-02  8.0000E-02  8.0000E-02  8.0000E-02  8.0000E-02  8.0000E-02  9.0000E-02
       9.0000E-02  0.1500      0.1500      0.1500      0.1500      0.1500      0.1500      0.1500      0.1500      0.1500    
       0.1500      0.1500      0.1500      0.1500      0.1500      8.0000E-02  8.0000E-02  8.0000E-02  8.0000E-02   0.000    
        0.000    
  42    0.000       0.000       0.000      8.0000E-02  8.0000E-02  8.0000E-02  8.0000E-02  8.0000E-02  8.0000E-02  0.1500    
       0.1500      0.1500      0.1500      0.1500      8.0000E-02  8.0000E-02  8.0000E-02  8.0000E-02  8.0000E-02  9.0000E-02
       9.0000E-02  9.0000E-02  9.0000E-02  9.0000E-02  9.0000E-02  9.0000E-02  9.0000E-02  9.0000E-02  9.0000E-02  9.0000E-02
       9.0000E-02  9.0000E-02  0.1500      0.1500      0.1500      0.1500      0.1500      0.1500      0.1500      9.0000E-02
       8.0000E-02  8.0000E-02  8.0000E-02  8.0000E-02  8.0000E-02  8.0000E-02  0.1500      0.1500      9.0000E-02  9.0000E-02
       9.0000E-02  9.0000E-02  9.0000E-02  8.0000E-02  8.0000E-02  8.0000E-02  8.0000E-02  8.0000E-02  8.0000E-02  9.0000E-02
       9.0000E-02  0.1500      0.1500      0.1500      0.1500      0.1500      0.1500      0.1500      0.1500      0.1500    
       0.1500      0.1500      0.1500      0.1500      0.1500      0.1500      0.1500      8.0000E-02  8.0000E-02   0.000    
        0.000    
  43    0.000       0.000       0.000      8.0000E-02  8.0000E-02  8.0000E-02  8.0000E-02  8.0000E-02  8.0000E-02  0.1500    
       0.1500      0.1500      0.1500      8.0000E-02  8.0000E-02  8.0000E-02  8.0000E-02  8.0000E-02  8.0000E-02  8.0000E-02
       9.0000E-02  9.0000E-02  9.0000E-02  9.0000E-02  9.0000E-02  9.0000E-02  9.0000E-02  9.0000E-02  9.0000E-02  9.0000E-02
       9.0000E-02  9.0000E-02  0.1500      0.1500      0.1500      0.1500      0.1500      0.1500      0.1500      9.0000E-02
       8.0000E-02  8.0000E-02  8.0000E-02  8.0000E-02  8.0000E-02  8.0000E-02  0.1500      0.1500      9.0000E-02  9.0000E-02
       8.0000E-02  8.0000E-02  8.0000E-02  8.0000E-02  8.0000E-02  8.0000E-02  8.0000E-02  8.0000E-02  8.0000E-02  9.0000E-02
       9.0000E-02  0.1500      0.1500      0.1500      0.1500      0.1500      0.1500      9.0000E-02  9.0000E-02  9.0000E-02
       9.0000E-02  0.1500      0.1500      0.1500      0.1500      0.1500      0.1500      0.1500      0.1500       0.000    
        0.000    
  44    0.000       0.000      8.0000E-02  8.0000E-02  8.0000E-02  8.0000E-02  8.0000E-02  8.0000E-02  0.1500      0.1500    
       0.1500      0.1500      8.0000E-02  8.0000E-02  8.0000E-02  8.0000E-02  8.0000E-02  8.0000E-02  8.0000E-02  8.0000E-02
       8.0000E-02  9.0000E-02  9.0000E-02  9.0000E-02  9.0000E-02  9.0000E-02  9.0000E-02  9.0000E-02  9.0000E-02  9.0000E-02
       9.0000E-02  9.0000E-02  0.1500      0.1500      0.1500      0.1500      0.1500      0.1500      0.1500      9.0000E-02
       8.0000E-02  8.0000E-02  8.0000E-02  8.0000E-02  8.0000E-02  8.0000E-02  0.1500      0.1500      9.0000E-02  9.0000E-02
       8.0000E-02  8.0000E-02  8.0000E-02  8.0000E-02  8.0000E-02  8.0000E-02  8.0000E-02  8.0000E-02  8.0000E-02  9.0000E-02
       9.0000E-02  0.1500      0.1500      9.0000E-02  9.0000E-02  9.0000E-02  9.0000E-02  9.0000E-02  9.0000E-02  9.0000E-02
       9.0000E-02  0.1500      0.1500      0.1500      0.1500      0.1500      0.1500      0.1500      0.1500       0.000    
        0.000    
  45    0.000      8.0000E-02  8.0000E-02  8.0000E-02  8.0000E-02  8.0000E-02  0.1500      0.1500      0.1500      0.1500    
       0.1500      0.1500      8.0000E-02  8.0000E-02  8.0000E-02  8.0000E-02  8.0000E-02  8.0000E-02  8.0000E-02  8.0000E-02
       8.0000E-02  8.0000E-02  9.0000E-02  9.0000E-02  9.0000E-02  9.0000E-02  9.0000E-02  9.0000E-02  9.0000E-02  9.0000E-02
       9.0000E-02  9.0000E-02  0.1500      0.1500      0.1500      0.1500      0.1500      0.1500      0.1500      0.1500    
       8.0000E-02  8.0000E-02  8.0000E-02  8.0000E-02  8.0000E-02  8.0000E-02  0.1500      0.1500      9.0000E-02  9.0000E-02
       8.0000E-02  8.0000E-02  8.0000E-02  8.0000E-02  8.0000E-02  8.0000E-02  8.0000E-02  8.0000E-02  8.0000E-02  9.0000E-02
       9.0000E-02  0.1500      0.1500      9.0000E-02  9.0000E-02  9.0000E-02  9.0000E-02  9.0000E-02  9.0000E-02  9.0000E-02
       9.0000E-02  0.1500      0.1500      0.1500      0.1500      0.1500      0.1500      0.1500      0.1500       0.000    
        0.000    
  46    0.000      8.0000E-02  8.0000E-02  8.0000E-02  8.0000E-02  0.1500      0.1500      0.1500      0.1500      8.0000E-02
       8.0000E-02  8.0000E-02  8.0000E-02  8.0000E-02  8.0000E-02  8.0000E-02  8.0000E-02  8.0000E-02  8.0000E-02  8.0000E-02
       8.0000E-02  8.0000E-02  9.0000E-02  9.0000E-02  9.0000E-02  9.0000E-02  9.0000E-02  9.0000E-02  9.0000E-02  9.0000E-02
       9.0000E-02  9.0000E-02  0.1500      0.1500      0.1500      0.1500      0.1500      0.1500      0.1500      0.1500    
       8.0000E-02  8.0000E-02  8.0000E-02  8.0000E-02  8.0000E-02  8.0000E-02  0.1500      0.1500      0.1500      9.0000E-02
       8.0000E-02  8.0000E-02  8.0000E-02  8.0000E-02  8.0000E-02  8.0000E-02  8.0000E-02  8.0000E-02  8.0000E-02  9.0000E-02
       9.0000E-02  0.1500      0.1500      9.0000E-02  9.0000E-02  9.0000E-02  9.0000E-02  9.0000E-02  9.0000E-02  9.0000E-02
       9.0000E-02  0.1500      0.1500      0.1500      0.1500      0.1500      0.1500      0.1500       0.000       0.000    
        0.000    
  47   8.0000E-02  8.0000E-02  8.0000E-02  8.0000E-02  8.0000E-02  8.0000E-02  8.0000E-02  8.0000E-02  8.0000E-02  8.0000E-02
       8.0000E-02  8.0000E-02  8.0000E-02  8.0000E-02  8.0000E-02  8.0000E-02  8.0000E-02  8.0000E-02  8.0000E-02  8.0000E-02
       8.0000E-02  8.0000E-02  8.0000E-02  9.0000E-02  9.0000E-02  9.0000E-02  9.0000E-02  9.0000E-02  9.0000E-02  9.0000E-02
       9.0000E-02  9.0000E-02  0.1500      0.1500      0.1500      0.1500      0.1500      0.1500      0.1500      0.1500    
       8.0000E-02  8.0000E-02  8.0000E-02  8.0000E-02  8.0000E-02  8.0000E-02  8.0000E-02  0.1500      0.1500      9.0000E-02
       8.0000E-02  8.0000E-02  8.0000E-02  8.0000E-02  8.0000E-02  8.0000E-02  8.0000E-02  8.0000E-02  8.0000E-02  9.0000E-02
       9.0000E-02  0.1500      0.1500      9.0000E-02  9.0000E-02  9.0000E-02  9.0000E-02  9.0000E-02  9.0000E-02  9.0000E-02
       9.0000E-02  0.1500      0.1500      0.1500      0.1500      0.1500      0.1500      8.0000E-02   0.000       0.000    
        0.000    
  48    0.000      8.0000E-02  8.0000E-02  8.0000E-02  8.0000E-02  8.0000E-02  8.0000E-02  8.0000E-02  8.0000E-02  8.0000E-02
       8.0000E-02  8.0000E-02  8.0000E-02  8.0000E-02  8.0000E-02  8.0000E-02  8.0000E-02  8.0000E-02  8.0000E-02  8.0000E-02
       8.0000E-02  8.0000E-02  8.0000E-02  9.0000E-02  9.0000E-02  9.0000E-02  9.0000E-02  9.0000E-02  9.0000E-02  9.0000E-02
       9.0000E-02  9.0000E-02  0.1500      0.1500      0.1500      0.1500      0.1500      0.1500      0.1500      9.0000E-02
       8.0000E-02  8.0000E-02  8.0000E-02  8.0000E-02  8.0000E-02  8.0000E-02  8.0000E-02  0.1500      0.1500      0.1500    
       8.0000E-02  8.0000E-02  8.0000E-02  8.0000E-02  8.0000E-02  8.0000E-02  8.0000E-02  8.0000E-02  8.0000E-02  9.0000E-02
       9.0000E-02  0.1500      0.1500      9.0000E-02  9.0000E-02  9.0000E-02  9.0000E-02  9.0000E-02  9.0000E-02  9.0000E-02
       9.0000E-02  0.1500      0.1500      0.1500      0.1500      9.0000E-02  8.0000E-02   0.000       0.000       0.000    
        0.000    
  49    0.000       0.000      8.0000E-02  8.0000E-02  8.0000E-02  8.0000E-02  8.0000E-02  8.0000E-02  8.0000E-02  8.0000E-02
       8.0000E-02  8.0000E-02  8.0000E-02  8.0000E-02  8.0000E-02  8.0000E-02  8.0000E-02  8.0000E-02  8.0000E-02  8.0000E-02
       8.0000E-02  8.0000E-02  8.0000E-02  8.0000E-02  8.0000E-02  9.0000E-02  9.0000E-02  9.0000E-02  9.0000E-02  9.0000E-02
       9.0000E-02  9.0000E-02  0.1500      0.1500      0.1500      0.1500      0.1500      0.1500      0.1500      9.0000E-02
       8.0000E-02  8.0000E-02  8.0000E-02  8.0000E-02  8.0000E-02  8.0000E-02  8.0000E-02  0.1500      0.1500      0.1500    
       8.0000E-02  8.0000E-02  8.0000E-02  8.0000E-02  8.0000E-02  8.0000E-02  8.0000E-02  8.0000E-02  8.0000E-02  9.0000E-02
       9.0000E-02  0.1500      0.1500      9.0000E-02  9.0000E-02  9.0000E-02  9.0000E-02  9.0000E-02  9.0000E-02  9.0000E-02
       0.1500      0.1500      0.1500      0.1500      0.1500      9.0000E-02   0.000       0.000       0.000       0.000    
        0.000    
  50    0.000       0.000       0.000      8.0000E-02  8.0000E-02  8.0000E-02  8.0000E-02  8.0000E-02  8.0000E-02  8.0000E-02
       8.0000E-02  8.0000E-02  8.0000E-02  8.0000E-02  8.0000E-02  8.0000E-02  8.0000E-02  8.0000E-02  8.0000E-02  8.0000E-02
       8.0000E-02  8.0000E-02  8.0000E-02  8.0000E-02  8.0000E-02  8.0000E-02  9.0000E-02  9.0000E-02  9.0000E-02  9.0000E-02
       9.0000E-02  9.0000E-02  0.1500      0.1500      0.1500      0.1500      0.1500      0.1500      0.1500      9.0000E-02
       8.0000E-02  8.0000E-02  8.0000E-02  8.0000E-02  8.0000E-02  8.0000E-02  8.0000E-02  0.1500      0.1500      0.1500    
       8.0000E-02  8.0000E-02  8.0000E-02  8.0000E-02  8.0000E-02  8.0000E-02  8.0000E-02  8.0000E-02  8.0000E-02  9.0000E-02
       9.0000E-02  0.1500      0.1500      9.0000E-02  9.0000E-02  9.0000E-02  9.0000E-02  9.0000E-02  9.0000E-02  9.0000E-02
       0.1500      0.1500      0.1500      0.1500      9.0000E-02  9.0000E-02   0.000       0.000       0.000       0.000    
        0.000    
  51    0.000       0.000       0.000       0.000       0.000       0.000       0.000       0.000      8.0000E-02  8.0000E-02
       8.0000E-02  8.0000E-02  8.0000E-02   0.000       0.000      8.0000E-02  8.0000E-02  8.0000E-02  8.0000E-02  8.0000E-02
       8.0000E-02  8.0000E-02  8.0000E-02  8.0000E-02  8.0000E-02  8.0000E-02  8.0000E-02  9.0000E-02  9.0000E-02  9.0000E-02
       9.0000E-02  9.0000E-02  0.1500      0.1500      0.1500      0.1500      0.1500      0.1500      0.1500      9.0000E-02
       8.0000E-02  8.0000E-02  8.0000E-02  8.0000E-02  8.0000E-02  8.0000E-02  8.0000E-02  0.1500      0.1500      0.1500    
       8.0000E-02  8.0000E-02  8.0000E-02  8.0000E-02  8.0000E-02  8.0000E-02  8.0000E-02  8.0000E-02  8.0000E-02  9.0000E-02
       9.0000E-02  0.1500      0.1500      9.0000E-02  9.0000E-02  9.0000E-02  9.0000E-02  9.0000E-02  9.0000E-02  9.0000E-02
       0.1500      0.1500      0.1500      0.1500      9.0000E-02  9.0000E-02   0.000       0.000       0.000       0.000    
        0.000    
  52    0.000       0.000       0.000       0.000       0.000       0.000       0.000       0.000       0.000       0.000    
        0.000       0.000       0.000       0.000       0.000       0.000      8.0000E-02  8.0000E-02  8.0000E-02  8.0000E-02
       8.0000E-02  8.0000E-02  8.0000E-02  8.0000E-02  8.0000E-02  8.0000E-02  8.0000E-02  8.0000E-02  9.0000E-02  9.0000E-02
       9.0000E-02  9.0000E-02  0.1500      0.1500      0.1500      0.1500      0.1500      0.1500      9.0000E-02  9.0000E-02
       8.0000E-02  8.0000E-02  8.0000E-02  8.0000E-02  8.0000E-02  8.0000E-02  8.0000E-02  0.1500      0.1500      0.1500    
       8.0000E-02  8.0000E-02  8.0000E-02  8.0000E-02  8.0000E-02  8.0000E-02  8.0000E-02  8.0000E-02  8.0000E-02  9.0000E-02
       0.1500      0.1500      0.1500      9.0000E-02  9.0000E-02  9.0000E-02  9.0000E-02  9.0000E-02  9.0000E-02  9.0000E-02
       0.1500      0.1500      0.1500      0.1500      9.0000E-02  9.0000E-02   0.000       0.000       0.000       0.000    
        0.000    
  53    0.000       0.000       0.000       0.000       0.000       0.000       0.000       0.000       0.000       0.000    
        0.000       0.000       0.000       0.000       0.000       0.000       0.000      8.0000E-02  8.0000E-02  8.0000E-02
       8.0000E-02  8.0000E-02  8.0000E-02  8.0000E-02  8.0000E-02  8.0000E-02  8.0000E-02  8.0000E-02  9.0000E-02  9.0000E-02
       9.0000E-02  9.0000E-02  0.1500      0.1500      0.1500      0.1500      0.1500      0.1500      9.0000E-02  9.0000E-02
       8.0000E-02  8.0000E-02  8.0000E-02  8.0000E-02  8.0000E-02  8.0000E-02  8.0000E-02  0.1500      0.1500      0.1500    
       8.0000E-02  8.0000E-02  8.0000E-02  8.0000E-02  8.0000E-02  8.0000E-02  8.0000E-02  8.0000E-02  8.0000E-02  9.0000E-02
       0.1500      0.1500      0.1500      9.0000E-02  9.0000E-02  9.0000E-02  9.0000E-02  9.0000E-02  9.0000E-02  9.0000E-02
       0.1500      0.1500      0.1500      0.1500      9.0000E-02  9.0000E-02   0.000       0.000       0.000       0.000    
        0.000    
  54    0.000       0.000       0.000       0.000       0.000       0.000       0.000       0.000       0.000       0.000    
        0.000       0.000       0.000       0.000       0.000       0.000       0.000       0.000      8.0000E-02  8.0000E-02
       8.0000E-02  8.0000E-02  8.0000E-02  8.0000E-02  8.0000E-02  8.0000E-02  8.0000E-02  8.0000E-02  8.0000E-02  9.0000E-02
       9.0000E-02  9.0000E-02  0.1500      0.1500      0.1500      0.1500      0.1500      0.1500      9.0000E-02  9.0000E-02
       8.0000E-02  8.0000E-02  8.0000E-02  8.0000E-02  8.0000E-02  8.0000E-02  8.0000E-02  0.1500      0.1500      0.1500    
       8.0000E-02  8.0000E-02  8.0000E-02  8.0000E-02  8.0000E-02  8.0000E-02  8.0000E-02  8.0000E-02  8.0000E-02  9.0000E-02
       0.1500      0.1500      0.1500      9.0000E-02  9.0000E-02  9.0000E-02  9.0000E-02  9.0000E-02  9.0000E-02  0.1500    
       0.1500      0.1500      0.1500      0.1500      9.0000E-02  9.0000E-02   0.000       0.000       0.000       0.000    
        0.000    
  55    0.000       0.000       0.000       0.000       0.000       0.000       0.000       0.000       0.000       0.000    
        0.000       0.000       0.000       0.000       0.000       0.000       0.000       0.000      8.0000E-02  8.0000E-02
       8.0000E-02  8.0000E-02  8.0000E-02  8.0000E-02  8.0000E-02  8.0000E-02  8.0000E-02  8.0000E-02  8.0000E-02  9.0000E-02
       9.0000E-02  9.0000E-02  0.1500      0.1500      0.1500      0.1500      0.1500      0.1500      9.0000E-02  8.0000E-02
       8.0000E-02  8.0000E-02  8.0000E-02  8.0000E-02  8.0000E-02  8.0000E-02  8.0000E-02  0.1500      0.1500      0.1500    
       8.0000E-02  8.0000E-02  8.0000E-02  8.0000E-02  8.0000E-02  8.0000E-02  8.0000E-02  8.0000E-02  8.0000E-02  9.0000E-02
       0.1500      0.1500      0.1500      9.0000E-02  9.0000E-02  9.0000E-02  9.0000E-02  9.0000E-02  9.0000E-02  0.1500    
       0.1500      0.1500      0.1500      0.1500      9.0000E-02  9.0000E-02   0.000       0.000       0.000       0.000    
        0.000    
  56    0.000       0.000       0.000       0.000       0.000       0.000       0.000       0.000       0.000       0.000    
        0.000       0.000       0.000       0.000       0.000       0.000       0.000       0.000       0.000       0.000    
        0.000      8.0000E-02  8.0000E-02  8.0000E-02  8.0000E-02  8.0000E-02  8.0000E-02  8.0000E-02  8.0000E-02  9.0000E-02
       9.0000E-02  9.0000E-02  0.1500      0.1500      0.1500      0.1500      0.1500      0.1500      9.0000E-02  8.0000E-02
       8.0000E-02  8.0000E-02  8.0000E-02  8.0000E-02  8.0000E-02  8.0000E-02  8.0000E-02  0.1500      0.1500      0.1500    
       9.0000E-02  8.0000E-02  8.0000E-02  8.0000E-02  8.0000E-02  8.0000E-02  8.0000E-02  8.0000E-02  8.0000E-02  9.0000E-02
       0.1500      0.1500      0.1500      9.0000E-02  9.0000E-02  9.0000E-02  9.0000E-02  9.0000E-02  9.0000E-02  0.1500    
       0.1500      0.1500      0.1500      0.1500      9.0000E-02  9.0000E-02   0.000       0.000       0.000       0.000    
        0.000    
  57    0.000       0.000       0.000       0.000       0.000       0.000       0.000       0.000       0.000       0.000    
        0.000       0.000       0.000       0.000       0.000       0.000       0.000       0.000       0.000       0.000    
        0.000       0.000      8.0000E-02  8.0000E-02  8.0000E-02  8.0000E-02  8.0000E-02  8.0000E-02  8.0000E-02  8.0000E-02
       9.0000E-02  9.0000E-02  0.1500      0.1500      0.1500      0.1500      0.1500      0.1500      9.0000E-02  8.0000E-02
       8.0000E-02  8.0000E-02  8.0000E-02  8.0000E-02  8.0000E-02  8.0000E-02  8.0000E-02  8.0000E-02  8.0000E-02  0.1500    
       9.0000E-02  8.0000E-02  8.0000E-02  8.0000E-02  8.0000E-02  8.0000E-02  8.0000E-02  8.0000E-02  8.0000E-02  9.0000E-02
       0.1500      0.1500      9.0000E-02  9.0000E-02  8.0000E-02  8.0000E-02  9.0000E-02  9.0000E-02  9.0000E-02  0.1500    
       0.1500      0.1500      0.1500      0.1500      9.0000E-02  9.0000E-02   0.000       0.000       0.000       0.000    
        0.000    
  58    0.000       0.000       0.000       0.000       0.000       0.000       0.000       0.000       0.000       0.000    
        0.000       0.000       0.000       0.000       0.000       0.000       0.000       0.000       0.000       0.000    
        0.000       0.000       0.000      8.0000E-02  8.0000E-02  8.0000E-02  8.0000E-02  8.0000E-02  8.0000E-02  8.0000E-02
       9.0000E-02  9.0000E-02  0.1500      0.1500      0.1500      0.1500      0.1500      0.1500      9.0000E-02  8.0000E-02
       8.0000E-02  8.0000E-02  8.0000E-02  8.0000E-02  8.0000E-02  8.0000E-02  8.0000E-02  8.0000E-02  8.0000E-02  0.1500    
       9.0000E-02  8.0000E-02  8.0000E-02  8.0000E-02  8.0000E-02  8.0000E-02  8.0000E-02  8.0000E-02  8.0000E-02  9.0000E-02
       0.1500      9.0000E-02  9.0000E-02  9.0000E-02  8.0000E-02  8.0000E-02  8.0000E-02  9.0000E-02  9.0000E-02  0.1500    
       0.1500      0.1500      0.1500      0.1500      9.0000E-02  9.0000E-02   0.000       0.000       0.000       0.000    
        0.000    
  59    0.000       0.000       0.000       0.000       0.000       0.000       0.000       0.000       0.000       0.000    
        0.000       0.000       0.000       0.000       0.000       0.000       0.000       0.000       0.000       0.000    
        0.000       0.000       0.000       0.000       0.000       0.000       0.000       0.000       0.000      8.0000E-02
       8.0000E-02  9.0000E-02  0.1500      0.1500      0.1500      0.1500      0.1500      0.1500      9.0000E-02  8.0000E-02
       8.0000E-02  8.0000E-02  8.0000E-02  8.0000E-02  8.0000E-02  8.0000E-02  8.0000E-02  8.0000E-02  8.0000E-02  0.1500    
       0.1500      8.0000E-02  8.0000E-02  8.0000E-02  8.0000E-02  8.0000E-02  8.0000E-02  8.0000E-02  8.0000E-02  9.0000E-02
       9.0000E-02  9.0000E-02  9.0000E-02  9.0000E-02  8.0000E-02  8.0000E-02  8.0000E-02  9.0000E-02  9.0000E-02  0.1500    
       0.1500      0.1500      0.1500      0.1500      9.0000E-02  9.0000E-02   0.000       0.000       0.000       0.000    
        0.000    
  60    0.000       0.000       0.000       0.000       0.000       0.000       0.000       0.000       0.000       0.000    
        0.000       0.000       0.000       0.000       0.000       0.000       0.000       0.000       0.000       0.000    
        0.000       0.000       0.000       0.000       0.000       0.000       0.000       0.000       0.000       0.000    
        0.000      9.0000E-02  0.1500      0.1500      0.1500      0.1500      0.1500      0.1500      8.0000E-02  8.0000E-02
       8.0000E-02  8.0000E-02  8.0000E-02  8.0000E-02  8.0000E-02  8.0000E-02  8.0000E-02  8.0000E-02  8.0000E-02  8.0000E-02
       0.1500      8.0000E-02  8.0000E-02  8.0000E-02  8.0000E-02  8.0000E-02  8.0000E-02  8.0000E-02  9.0000E-02  9.0000E-02
       9.0000E-02  8.0000E-02  8.0000E-02  8.0000E-02  8.0000E-02  8.0000E-02  8.0000E-02  9.0000E-02  0.1500      0.1500    
       0.1500      0.1500      9.0000E-02  9.0000E-02  9.0000E-02  9.0000E-02   0.000       0.000       0.000       0.000    
        0.000    
  61    0.000       0.000       0.000       0.000       0.000       0.000       0.000       0.000       0.000       0.000    
        0.000       0.000       0.000       0.000       0.000       0.000       0.000       0.000       0.000       0.000    
        0.000       0.000       0.000       0.000       0.000       0.000       0.000       0.000       0.000       0.000    
        0.000       0.000      9.0000E-02  9.0000E-02  9.0000E-02  9.0000E-02  9.0000E-02  9.0000E-02  8.0000E-02  8.0000E-02
       8.0000E-02  8.0000E-02  8.0000E-02  8.0000E-02  8.0000E-02  8.0000E-02  8.0000E-02  8.0000E-02  8.0000E-02  8.0000E-02
       0.1500      0.1500      8.0000E-02  8.0000E-02  8.0000E-02  8.0000E-02  8.0000E-02  8.0000E-02  8.0000E-02  8.0000E-02
       8.0000E-02  8.0000E-02  8.0000E-02  8.0000E-02  8.0000E-02  8.0000E-02  8.0000E-02  9.0000E-02  0.1500      9.0000E-02
       0.1500      0.1500      9.0000E-02  9.0000E-02  9.0000E-02  9.0000E-02   0.000       0.000       0.000       0.000    
        0.000    
  62    0.000       0.000       0.000       0.000       0.000       0.000       0.000       0.000       0.000       0.000    
        0.000       0.000       0.000       0.000       0.000       0.000       0.000       0.000       0.000       0.000    
        0.000       0.000       0.000       0.000       0.000       0.000       0.000       0.000       0.000       0.000    
        0.000       0.000       0.000      9.0000E-02  9.0000E-02   0.000       0.000       0.000       0.000       0.000    
        0.000       0.000       0.000       0.000       0.000       0.000      8.0000E-02  8.0000E-02  8.0000E-02  8.0000E-02
       9.0000E-02  0.1500      8.0000E-02  8.0000E-02  8.0000E-02  8.0000E-02  8.0000E-02  8.0000E-02  8.0000E-02  8.0000E-02
       8.0000E-02  8.0000E-02  8.0000E-02  8.0000E-02  8.0000E-02  8.0000E-02  9.0000E-02  0.1500      0.1500      9.0000E-02
       9.0000E-02  9.0000E-02  9.0000E-02  9.0000E-02  9.0000E-02  9.0000E-02   0.000       0.000       0.000       0.000    
        0.000    
  63    0.000       0.000       0.000       0.000       0.000       0.000       0.000       0.000       0.000       0.000    
        0.000       0.000       0.000       0.000       0.000       0.000       0.000       0.000       0.000       0.000    
        0.000       0.000       0.000       0.000       0.000       0.000       0.000       0.000       0.000       0.000    
        0.000       0.000       0.000       0.000       0.000       0.000       0.000       0.000       0.000       0.000    
        0.000       0.000       0.000       0.000       0.000       0.000      8.0000E-02  8.0000E-02  8.0000E-02  8.0000E-02
       9.0000E-02  9.0000E-02  8.0000E-02  8.0000E-02  8.0000E-02  8.0000E-02  8.0000E-02  8.0000E-02  8.0000E-02  8.0000E-02
       8.0000E-02  8.0000E-02  8.0000E-02  8.0000E-02  8.0000E-02  8.0000E-02  9.0000E-02  0.1500      0.1500      9.0000E-02
       9.0000E-02  9.0000E-02  9.0000E-02  9.0000E-02  9.0000E-02  9.0000E-02   0.000       0.000       0.000       0.000    
        0.000    
  64    0.000       0.000       0.000       0.000       0.000       0.000       0.000       0.000       0.000       0.000    
        0.000       0.000       0.000       0.000       0.000       0.000       0.000       0.000       0.000       0.000    
        0.000       0.000       0.000       0.000       0.000       0.000       0.000       0.000       0.000       0.000    
        0.000       0.000       0.000       0.000       0.000       0.000       0.000       0.000       0.000       0.000    
        0.000       0.000       0.000       0.000       0.000       0.000       0.000      8.0000E-02  8.0000E-02  8.0000E-02
       9.0000E-02  9.0000E-02  8.0000E-02  8.0000E-02  8.0000E-02  8.0000E-02  8.0000E-02  8.0000E-02  8.0000E-02  8.0000E-02
       8.0000E-02  8.0000E-02  8.0000E-02  8.0000E-02  8.0000E-02  8.0000E-02  9.0000E-02  0.1500      9.0000E-02  9.0000E-02
       9.0000E-02  9.0000E-02  9.0000E-02  9.0000E-02  9.0000E-02  9.0000E-02   0.000       0.000       0.000       0.000    
        0.000    
  65    0.000       0.000       0.000       0.000       0.000       0.000       0.000       0.000       0.000       0.000    
        0.000       0.000       0.000       0.000       0.000       0.000       0.000       0.000       0.000       0.000    
        0.000       0.000       0.000       0.000       0.000       0.000       0.000       0.000       0.000       0.000    
        0.000       0.000       0.000       0.000       0.000       0.000       0.000       0.000       0.000       0.000    
        0.000       0.000       0.000       0.000       0.000       0.000       0.000       0.000      8.0000E-02  8.0000E-02
       9.0000E-02  9.0000E-02  8.0000E-02  8.0000E-02  8.0000E-02  8.0000E-02  8.0000E-02  8.0000E-02  8.0000E-02  8.0000E-02
       8.0000E-02  8.0000E-02  8.0000E-02  8.0000E-02  8.0000E-02  9.0000E-02  9.0000E-02  9.0000E-02  9.0000E-02  9.0000E-02
       9.0000E-02  9.0000E-02  9.0000E-02  9.0000E-02  9.0000E-02  9.0000E-02   0.000       0.000       0.000       0.000    
        0.000    
  66    0.000       0.000       0.000       0.000       0.000       0.000       0.000       0.000       0.000       0.000    
        0.000       0.000       0.000       0.000       0.000       0.000       0.000       0.000       0.000       0.000    
        0.000       0.000       0.000       0.000       0.000       0.000       0.000       0.000       0.000       0.000    
        0.000       0.000       0.000       0.000       0.000       0.000       0.000       0.000       0.000       0.000    
        0.000       0.000       0.000       0.000       0.000       0.000       0.000       0.000       0.000      8.0000E-02
       8.0000E-02  8.0000E-02  8.0000E-02  8.0000E-02  8.0000E-02  8.0000E-02  8.0000E-02  8.0000E-02  8.0000E-02  8.0000E-02
       8.0000E-02  8.0000E-02  8.0000E-02  8.0000E-02  8.0000E-02  9.0000E-02  9.0000E-02  9.0000E-02  9.0000E-02  9.0000E-02
       9.0000E-02  9.0000E-02  9.0000E-02  9.0000E-02  9.0000E-02  8.0000E-02   0.000       0.000       0.000       0.000    
        0.000    
  67    0.000       0.000       0.000       0.000       0.000       0.000       0.000       0.000       0.000       0.000    
        0.000       0.000       0.000       0.000       0.000       0.000       0.000       0.000       0.000       0.000    
        0.000       0.000       0.000       0.000       0.000       0.000       0.000       0.000       0.000       0.000    
        0.000       0.000       0.000       0.000       0.000       0.000       0.000       0.000       0.000       0.000    
        0.000       0.000       0.000       0.000       0.000       0.000       0.000       0.000       0.000      8.0000E-02
       8.0000E-02  8.0000E-02  8.0000E-02  8.0000E-02  8.0000E-02  8.0000E-02  8.0000E-02  8.0000E-02  8.0000E-02  8.0000E-02
       8.0000E-02  8.0000E-02  8.0000E-02  8.0000E-02  8.0000E-02  9.0000E-02  9.0000E-02  9.0000E-02  9.0000E-02  9.0000E-02
       9.0000E-02  9.0000E-02  9.0000E-02  9.0000E-02  8.0000E-02  8.0000E-02   0.000       0.000       0.000       0.000    
        0.000    
  68    0.000       0.000       0.000       0.000       0.000       0.000       0.000       0.000       0.000       0.000    
        0.000       0.000       0.000       0.000       0.000       0.000       0.000       0.000       0.000       0.000    
        0.000       0.000       0.000       0.000       0.000       0.000       0.000       0.000       0.000       0.000    
        0.000       0.000       0.000       0.000       0.000       0.000       0.000       0.000       0.000       0.000    
        0.000       0.000       0.000       0.000       0.000       0.000       0.000       0.000       0.000       0.000    
       8.0000E-02  8.0000E-02  8.0000E-02  8.0000E-02  8.0000E-02  8.0000E-02  8.0000E-02  8.0000E-02  8.0000E-02  8.0000E-02
       8.0000E-02  8.0000E-02  8.0000E-02  8.0000E-02  8.0000E-02  9.0000E-02  9.0000E-02  9.0000E-02  9.0000E-02  9.0000E-02
       9.0000E-02  9.0000E-02  9.0000E-02  9.0000E-02  8.0000E-02  8.0000E-02   0.000       0.000       0.000       0.000    
        0.000    
  69    0.000       0.000       0.000       0.000       0.000       0.000       0.000       0.000       0.000       0.000    
        0.000       0.000       0.000       0.000       0.000       0.000       0.000       0.000       0.000       0.000    
        0.000       0.000       0.000       0.000       0.000       0.000       0.000       0.000       0.000       0.000    
        0.000       0.000       0.000       0.000       0.000       0.000       0.000       0.000       0.000       0.000    
        0.000       0.000       0.000       0.000       0.000       0.000       0.000       0.000       0.000       0.000    
        0.000       0.000       0.000       0.000       0.000       0.000      8.0000E-02  8.0000E-02  8.0000E-02  8.0000E-02
       8.0000E-02  8.0000E-02  8.0000E-02  8.0000E-02  9.0000E-02  9.0000E-02  9.0000E-02  9.0000E-02  9.0000E-02  9.0000E-02
       9.0000E-02  9.0000E-02  9.0000E-02  9.0000E-02  8.0000E-02  8.0000E-02   0.000       0.000       0.000       0.000    
        0.000    
  70    0.000       0.000       0.000       0.000       0.000       0.000       0.000       0.000       0.000       0.000    
        0.000       0.000       0.000       0.000       0.000       0.000       0.000       0.000       0.000       0.000    
        0.000       0.000       0.000       0.000       0.000       0.000       0.000       0.000       0.000       0.000    
        0.000       0.000       0.000       0.000       0.000       0.000       0.000       0.000       0.000       0.000    
        0.000       0.000       0.000       0.000       0.000       0.000       0.000       0.000       0.000       0.000    
        0.000       0.000       0.000       0.000       0.000       0.000      8.0000E-02  8.0000E-02  8.0000E-02  8.0000E-02
       8.0000E-02  9.0000E-02  9.0000E-02  9.0000E-02  9.0000E-02  9.0000E-02  9.0000E-02  9.0000E-02  9.0000E-02  9.0000E-02
       9.0000E-02  9.0000E-02  9.0000E-02  9.0000E-02  8.0000E-02   0.000       0.000       0.000       0.000       0.000    
        0.000    
  71    0.000       0.000       0.000       0.000       0.000       0.000       0.000       0.000       0.000       0.000    
        0.000       0.000       0.000       0.000       0.000       0.000       0.000       0.000       0.000       0.000    
        0.000       0.000       0.000       0.000       0.000       0.000       0.000       0.000       0.000       0.000    
        0.000       0.000       0.000       0.000       0.000       0.000       0.000       0.000       0.000       0.000    
        0.000       0.000       0.000       0.000       0.000       0.000       0.000       0.000       0.000       0.000    
        0.000       0.000       0.000       0.000       0.000       0.000       0.000      8.0000E-02  8.0000E-02  8.0000E-02
       9.0000E-02  9.0000E-02  9.0000E-02  9.0000E-02   0.000       0.000       0.000       0.000       0.000       0.000    
        0.000       0.000       0.000       0.000      8.0000E-02   0.000       0.000       0.000       0.000       0.000    
        0.000    
  72    0.000       0.000       0.000       0.000       0.000       0.000       0.000       0.000       0.000       0.000    
        0.000       0.000       0.000       0.000       0.000       0.000       0.000       0.000       0.000       0.000    
        0.000       0.000       0.000       0.000       0.000       0.000       0.000       0.000       0.000       0.000    
        0.000       0.000       0.000       0.000       0.000       0.000       0.000       0.000       0.000       0.000    
        0.000       0.000       0.000       0.000       0.000       0.000       0.000       0.000       0.000       0.000    
        0.000       0.000       0.000       0.000       0.000       0.000       0.000       0.000      8.0000E-02  8.0000E-02
       9.0000E-02  9.0000E-02   0.000       0.000       0.000       0.000       0.000       0.000       0.000       0.000    
        0.000       0.000       0.000       0.000       0.000       0.000       0.000       0.000       0.000       0.000    
        0.000    
  73    0.000       0.000       0.000       0.000       0.000       0.000       0.000       0.000       0.000       0.000    
        0.000       0.000       0.000       0.000       0.000       0.000       0.000       0.000       0.000       0.000    
        0.000       0.000       0.000       0.000       0.000       0.000       0.000       0.000       0.000       0.000    
        0.000       0.000       0.000       0.000       0.000       0.000       0.000       0.000       0.000       0.000    
        0.000       0.000       0.000       0.000       0.000       0.000       0.000       0.000       0.000       0.000    
        0.000       0.000       0.000       0.000       0.000       0.000       0.000       0.000      8.0000E-02  8.0000E-02
       9.0000E-02   0.000       0.000       0.000       0.000       0.000       0.000       0.000       0.000       0.000    
        0.000       0.000       0.000       0.000       0.000       0.000       0.000       0.000       0.000       0.000    
        0.000    



              HYD. COND. ALONG ROWS FOR LAYER   2
 READING ON UNIT   12 WITH FORMAT: (FREE)              

            1           2           3           4           5           6           7           8           9          10
           11          12          13          14          15          16          17          18          19          20
           21          22          23          24          25          26          27          28          29          30
           31          32          33          34          35          36          37          38          39          40
           41          42          43          44          45          46          47          48          49          50
           51          52          53          54          55          56          57          58          59          60
           61          62          63          64          65          66          67          68          69          70
           71          72          73          74          75          76          77          78          79          80
           81
 ........................................................................................................................
   1    0.000       0.000       0.000       0.000       0.000       0.000       0.000       0.000       0.000       0.000    
        0.000       0.000       0.000       0.000       0.000       0.000       0.000       0.000       0.000       0.000    
        0.000       0.000       0.000       0.000       0.000       0.000       0.000       0.000       0.000       0.000    
        0.000       0.000       0.000       0.000       0.000       0.000       0.000       0.000       0.000       0.000    
        0.000       0.000       0.000       0.000       0.000       0.000       0.000       0.000       0.000       0.000    
        0.000       0.000       0.000       0.000       0.000       0.000       0.000       0.000       0.000       0.000    
        0.000       0.000       0.000      4.5000E-04  4.5000E-04   0.000       0.000       0.000       0.000       0.000    
        0.000       0.000       0.000       0.000       0.000       0.000       0.000       0.000       0.000       0.000    
        0.000    
   2    0.000       0.000       0.000       0.000       0.000       0.000       0.000       0.000       0.000       0.000    
        0.000       0.000       0.000       0.000       0.000       0.000       0.000       0.000       0.000       0.000    
        0.000       0.000       0.000       0.000       0.000       0.000       0.000       0.000       0.000       0.000    
        0.000       0.000       0.000       0.000       0.000       0.000       0.000       0.000       0.000       0.000    
        0.000       0.000       0.000       0.000       0.000       0.000       0.000       0.000       0.000       0.000    
        0.000       0.000       0.000       0.000       0.000       0.000       0.000       0.000       0.000       0.000    
        0.000       0.000      4.5000E-04  2.7000E-03  2.7000E-03   0.000       0.000       0.000       0.000       0.000    
        0.000       0.000       0.000       0.000       0.000       0.000       0.000       0.000       0.000       0.000    
        0.000    
   3    0.000       0.000       0.000       0.000       0.000       0.000       0.000       0.000       0.000       0.000    
        0.000       0.000       0.000       0.000       0.000       0.000       0.000       0.000       0.000       0.000    
        0.000       0.000       0.000       0.000       0.000       0.000       0.000       0.000       0.000       0.000    
        0.000       0.000       0.000       0.000       0.000       0.000       0.000       0.000       0.000       0.000    
        0.000       0.000       0.000       0.000       0.000       0.000       0.000       0.000       0.000       0.000    
        0.000       0.000       0.000       0.000       0.000       0.000       0.000       0.000       0.000       0.000    
        0.000       0.000      2.7000E-03  2.7000E-03  9.0000E-03   0.000       0.000       0.000       0.000       0.000    
        0.000       0.000       0.000       0.000       0.000       0.000       0.000       0.000       0.000       0.000    
        0.000    
   4    0.000       0.000       0.000       0.000       0.000       0.000       0.000       0.000       0.000       0.000    
        0.000       0.000       0.000       0.000       0.000       0.000       0.000       0.000       0.000       0.000    
        0.000       0.000       0.000       0.000       0.000       0.000       0.000       0.000       0.000       0.000    
        0.000       0.000       0.000       0.000       0.000       0.000       0.000       0.000       0.000       0.000    
        0.000       0.000       0.000       0.000       0.000       0.000       0.000       0.000       0.000       0.000    
        0.000       0.000       0.000       0.000       0.000       0.000       0.000       0.000       0.000       0.000    
        0.000      4.5000E-04  2.7000E-03  2.7000E-03  9.0000E-03   0.000       0.000       0.000       0.000       0.000    
        0.000       0.000       0.000       0.000       0.000       0.000       0.000       0.000       0.000       0.000    
        0.000    
   5    0.000       0.000       0.000       0.000       0.000       0.000       0.000       0.000       0.000       0.000    
        0.000       0.000       0.000       0.000       0.000       0.000       0.000       0.000       0.000       0.000    
        0.000       0.000       0.000       0.000       0.000       0.000       0.000       0.000       0.000       0.000    
        0.000       0.000       0.000       0.000       0.000       0.000       0.000       0.000       0.000       0.000    
        0.000       0.000       0.000       0.000       0.000       0.000       0.000       0.000       0.000       0.000    
        0.000       0.000       0.000       0.000       0.000       0.000       0.000       0.000       0.000       0.000    
        0.000      2.7000E-03  2.7000E-03  2.7000E-03  9.0000E-03  2.7000E-03   0.000       0.000       0.000       0.000    
        0.000       0.000       0.000       0.000       0.000       0.000       0.000       0.000       0.000       0.000    
        0.000    
   6    0.000       0.000       0.000       0.000       0.000       0.000       0.000       0.000       0.000       0.000    
        0.000       0.000       0.000       0.000       0.000       0.000       0.000       0.000       0.000       0.000    
        0.000       0.000       0.000       0.000       0.000       0.000       0.000       0.000       0.000       0.000    
        0.000       0.000       0.000       0.000       0.000       0.000       0.000       0.000       0.000       0.000    
        0.000       0.000       0.000       0.000       0.000       0.000       0.000       0.000       0.000       0.000    
        0.000       0.000       0.000       0.000       0.000       0.000       0.000       0.000       0.000       0.000    
        0.000      2.7000E-03  2.7000E-03  2.7000E-03  9.0000E-03  9.0000E-03  2.7000E-03   0.000       0.000       0.000    
        0.000       0.000       0.000       0.000       0.000       0.000       0.000       0.000       0.000       0.000    
        0.000    
   7    0.000       0.000       0.000       0.000       0.000       0.000       0.000       0.000       0.000       0.000    
        0.000       0.000       0.000       0.000       0.000       0.000       0.000       0.000       0.000       0.000    
        0.000       0.000       0.000       0.000       0.000       0.000       0.000       0.000       0.000       0.000    
        0.000       0.000       0.000       0.000       0.000       0.000       0.000       0.000       0.000       0.000    
        0.000       0.000       0.000       0.000       0.000       0.000       0.000       0.000       0.000       0.000    
        0.000       0.000       0.000       0.000       0.000       0.000       0.000       0.000       0.000       0.000    
       4.5000E-04  2.7000E-03  2.7000E-03  2.7000E-03  9.0000E-03  9.0000E-03  9.0000E-03  2.7000E-03   0.000       0.000    
        0.000       0.000       0.000       0.000       0.000       0.000       0.000       0.000       0.000       0.000    
        0.000    
   8    0.000       0.000       0.000       0.000       0.000       0.000       0.000       0.000       0.000       0.000    
        0.000       0.000       0.000       0.000       0.000       0.000       0.000       0.000       0.000       0.000    
        0.000       0.000       0.000       0.000       0.000       0.000       0.000       0.000       0.000       0.000    
        0.000       0.000       0.000       0.000       0.000       0.000       0.000       0.000       0.000       0.000    
        0.000       0.000       0.000       0.000       0.000       0.000       0.000       0.000       0.000       0.000    
        0.000       0.000       0.000       0.000       0.000       0.000       0.000       0.000       0.000       0.000    
       9.0000E-04  2.7000E-03  2.7000E-03  2.7000E-03  9.0000E-03  9.0000E-03  9.0000E-03  2.7000E-03  2.7000E-03  2.7000E-03
       2.7000E-03   0.000       0.000       0.000       0.000       0.000       0.000       0.000       0.000       0.000    
        0.000    
   9    0.000       0.000       0.000       0.000       0.000       0.000       0.000       0.000       0.000       0.000    
        0.000       0.000       0.000       0.000       0.000       0.000       0.000       0.000       0.000       0.000    
        0.000       0.000       0.000       0.000       0.000       0.000       0.000       0.000       0.000       0.000    
        0.000       0.000       0.000       0.000       0.000       0.000       0.000       0.000       0.000       0.000    
        0.000       0.000       0.000       0.000       0.000       0.000       0.000       0.000      9.0000E-04  9.0000E-04
        0.000       0.000       0.000       0.000       0.000       0.000       0.000       0.000      2.7000E-03  2.7000E-03
       2.7000E-03  2.7000E-03  2.7000E-03  2.7000E-03  9.0000E-03  9.0000E-03  9.0000E-03  2.7000E-03  2.7000E-03  2.7000E-03
       2.7000E-03  2.7000E-03  2.7000E-03  2.7000E-03  2.7000E-03   0.000       0.000       0.000       0.000       0.000    
        0.000    
  10    0.000       0.000       0.000       0.000       0.000       0.000       0.000       0.000       0.000       0.000    
        0.000       0.000       0.000       0.000       0.000       0.000       0.000       0.000       0.000       0.000    
        0.000       0.000       0.000       0.000       0.000       0.000       0.000       0.000       0.000       0.000    
        0.000       0.000       0.000       0.000       0.000       0.000       0.000       0.000       0.000       0.000    
        0.000       0.000       0.000       0.000       0.000       0.000       0.000      9.0000E-04  9.0000E-04  9.0000E-04
       9.0000E-04  9.0000E-04  9.0000E-04   0.000       0.000       0.000      9.0000E-04  2.7000E-03  2.7000E-03  2.7000E-03
       2.7000E-03  2.7000E-03  2.7000E-03  2.7000E-03  9.0000E-03  9.0000E-03  9.0000E-03  2.7000E-03  2.7000E-03  2.7000E-03
       2.7000E-03  2.7000E-03  2.7000E-03  2.7000E-03  2.7000E-03  2.7000E-03   0.000       0.000       0.000       0.000    
        0.000    
  11    0.000       0.000       0.000       0.000       0.000       0.000       0.000       0.000       0.000       0.000    
        0.000       0.000       0.000       0.000       0.000       0.000       0.000       0.000       0.000       0.000    
        0.000       0.000       0.000       0.000       0.000       0.000       0.000       0.000       0.000       0.000    
        0.000       0.000       0.000       0.000       0.000       0.000       0.000       0.000       0.000       0.000    
        0.000       0.000       0.000       0.000       0.000       0.000      9.0000E-04  9.0000E-04  9.0000E-04  9.0000E-04
       9.0000E-04  9.0000E-04  9.0000E-04  9.0000E-04  9.0000E-04  9.0000E-04  9.0000E-04  2.7000E-03  2.7000E-03  2.7000E-03
       2.7000E-03  2.7000E-03  2.7000E-03  2.7000E-03  9.0000E-03  9.0000E-03  9.0000E-03  2.7000E-03  2.7000E-03  2.7000E-03
       2.7000E-03  2.7000E-03  2.7000E-03  2.7000E-03  2.7000E-03  2.7000E-03   0.000       0.000       0.000       0.000    
        0.000    
  12    0.000       0.000       0.000       0.000       0.000       0.000       0.000       0.000       0.000       0.000    
        0.000       0.000       0.000       0.000       0.000       0.000       0.000       0.000       0.000       0.000    
        0.000       0.000       0.000       0.000       0.000       0.000       0.000       0.000       0.000       0.000    
        0.000       0.000       0.000       0.000       0.000       0.000       0.000       0.000       0.000       0.000    
        0.000       0.000       0.000       0.000       0.000       0.000      9.0000E-04  9.0000E-04  9.0000E-04  2.7000E-03
       2.7000E-03  2.7000E-03  2.7000E-03  2.7000E-03  2.7000E-03  2.7000E-03  2.7000E-03  2.7000E-03  2.7000E-03  2.7000E-03
       2.7000E-03  2.7000E-03  2.7000E-03  2.7000E-03  9.0000E-03  9.0000E-03  9.0000E-03  2.7000E-03  2.7000E-03  2.7000E-03
       2.7000E-03  2.7000E-03  2.7000E-03  2.7000E-03  2.7000E-03  2.7000E-03  2.7000E-03   0.000       0.000       0.000    
        0.000    
  13    0.000       0.000       0.000       0.000       0.000       0.000       0.000       0.000       0.000       0.000    
        0.000       0.000       0.000       0.000       0.000       0.000       0.000       0.000       0.000       0.000    
        0.000       0.000       0.000       0.000       0.000       0.000       0.000       0.000       0.000       0.000    
        0.000       0.000       0.000       0.000       0.000       0.000       0.000       0.000       0.000       0.000    
        0.000       0.000       0.000       0.000      9.0000E-04  9.0000E-04  9.0000E-04  9.0000E-04  9.0000E-04  2.7000E-03
       2.7000E-03  2.7000E-03  2.7000E-03  2.7000E-03  2.7000E-03  2.7000E-03  2.7000E-03  2.7000E-03  2.7000E-03  2.7000E-03
       2.7000E-03  2.7000E-03  2.7000E-03  2.7000E-03  9.0000E-03  9.0000E-03  9.0000E-03  2.7000E-03  2.7000E-03  2.7000E-03
       2.7000E-03  2.7000E-03  2.7000E-03  2.7000E-03  2.7000E-03  2.7000E-03  2.7000E-03  2.7000E-03   0.000       0.000    
        0.000    
  14    0.000       0.000       0.000       0.000       0.000       0.000       0.000       0.000       0.000       0.000    
        0.000       0.000       0.000       0.000       0.000       0.000       0.000       0.000       0.000       0.000    
        0.000       0.000       0.000       0.000       0.000       0.000       0.000       0.000       0.000       0.000    
        0.000       0.000       0.000       0.000       0.000       0.000       0.000       0.000       0.000       0.000    
        0.000      9.0000E-04  9.0000E-04  9.0000E-04  9.0000E-04  9.0000E-04  9.0000E-04  9.0000E-04  9.0000E-04  2.7000E-03
       2.7000E-03  2.7000E-03  2.7000E-03  2.7000E-03  2.7000E-03  2.7000E-03  2.7000E-03  2.7000E-03  2.7000E-03  2.7000E-03
       2.7000E-03  2.7000E-03  2.7000E-03  2.7000E-03  9.0000E-03  9.0000E-03  9.0000E-03  2.7000E-03  2.7000E-03  2.7000E-03
       2.7000E-03  2.7000E-03  2.7000E-03  2.7000E-03  2.7000E-03  2.7000E-03  2.7000E-03  2.7000E-03  2.7000E-03   0.000    
        0.000    
  15    0.000       0.000       0.000       0.000       0.000       0.000       0.000       0.000       0.000       0.000    
        0.000       0.000       0.000       0.000       0.000       0.000       0.000       0.000       0.000       0.000    
        0.000       0.000       0.000       0.000       0.000       0.000       0.000       0.000       0.000       0.000    
        0.000       0.000       0.000       0.000       0.000       0.000       0.000       0.000       0.000       0.000    
       4.5000E-04  4.5000E-04  9.0000E-04  9.0000E-04  9.0000E-04  9.0000E-04  9.0000E-04  9.0000E-04  9.0000E-04  9.0000E-04
       9.0000E-04  2.7000E-03  2.7000E-03  2.7000E-03  2.7000E-03  2.7000E-03  2.7000E-03  2.7000E-03  2.7000E-03  2.7000E-03
       2.7000E-03  2.7000E-03  2.7000E-03  2.7000E-03  9.0000E-03  9.0000E-03  9.0000E-03  9.0000E-03  2.7000E-03  2.7000E-03
       2.7000E-03  2.7000E-03  2.7000E-03  2.7000E-03  2.7000E-03  2.7000E-03  2.7000E-03  2.7000E-03  2.7000E-03  2.7000E-03
        0.000    
  16    0.000       0.000       0.000       0.000       0.000       0.000       0.000       0.000       0.000       0.000    
        0.000       0.000       0.000       0.000       0.000       0.000       0.000       0.000       0.000       0.000    
        0.000       0.000       0.000       0.000       0.000       0.000       0.000       0.000       0.000       0.000    
        0.000       0.000       0.000       0.000       0.000       0.000       0.000       0.000       0.000      4.5000E-04
       4.5000E-04  4.5000E-04  9.0000E-04  9.0000E-04  9.0000E-04  9.0000E-04  9.0000E-04  9.0000E-04  9.0000E-04  9.0000E-04
       9.0000E-04  9.0000E-04  2.7000E-03  2.7000E-03  2.7000E-03  2.7000E-03  2.7000E-03  2.7000E-03  2.7000E-03  2.7000E-03
       2.7000E-03  2.7000E-03  2.7000E-03  2.7000E-03  9.0000E-03  9.0000E-03  9.0000E-03  9.0000E-03  9.0000E-03  2.7000E-03
       2.7000E-03  2.7000E-03  2.7000E-03  2.7000E-03  2.7000E-03  2.7000E-03  2.7000E-03  2.7000E-03  2.7000E-03  2.7000E-03
        0.000    
  17    0.000       0.000       0.000       0.000       0.000       0.000       0.000       0.000       0.000       0.000    
        0.000       0.000       0.000       0.000       0.000       0.000       0.000       0.000       0.000       0.000    
        0.000       0.000       0.000       0.000       0.000       0.000       0.000       0.000       0.000       0.000    
        0.000       0.000       0.000       0.000       0.000       0.000       0.000       0.000       0.000      4.5000E-04
       4.5000E-04  4.5000E-04  4.5000E-04  9.0000E-04  9.0000E-04  9.0000E-04  9.0000E-04  9.0000E-04  9.0000E-04  9.0000E-04
       9.0000E-04  9.0000E-04  2.7000E-03  2.7000E-03  2.7000E-03  2.7000E-03  2.7000E-03  2.7000E-03  2.7000E-03  2.7000E-03
       2.7000E-03  2.7000E-03  2.7000E-03  2.7000E-03  9.0000E-03  9.0000E-03  9.0000E-03  9.0000E-03  9.0000E-03  9.0000E-03
       9.0000E-03  9.0000E-03  9.0000E-03  9.0000E-03  9.0000E-03  9.0000E-03  2.7000E-03  2.7000E-03  2.7000E-03  2.7000E-03
        0.000    
  18    0.000       0.000       0.000       0.000       0.000       0.000       0.000       0.000       0.000       0.000    
        0.000       0.000       0.000       0.000       0.000       0.000       0.000       0.000       0.000       0.000    
        0.000       0.000       0.000       0.000       0.000       0.000       0.000       0.000       0.000       0.000    
        0.000       0.000       0.000       0.000       0.000       0.000       0.000       0.000       0.000      4.5000E-04
       4.5000E-04  4.5000E-04  4.5000E-04  9.0000E-04  9.0000E-04  9.0000E-04  9.0000E-04  9.0000E-04  9.0000E-04  9.0000E-04
       9.0000E-04  9.0000E-04  2.7000E-03  2.7000E-03  2.7000E-03  2.7000E-03  2.7000E-03  2.7000E-03  2.7000E-03  2.7000E-03
       2.7000E-03  2.7000E-03  2.7000E-03  2.7000E-03  9.0000E-03  9.0000E-03  9.0000E-03  9.0000E-03  9.0000E-03  9.0000E-03
       9.0000E-03  9.0000E-03  9.0000E-03  9.0000E-03  9.0000E-03  9.0000E-03  9.0000E-03  2.7000E-03  2.7000E-03  2.7000E-03
        0.000    
  19    0.000       0.000       0.000       0.000       0.000       0.000       0.000       0.000       0.000       0.000    
        0.000       0.000       0.000       0.000       0.000       0.000       0.000       0.000       0.000       0.000    
        0.000       0.000       0.000       0.000       0.000       0.000       0.000       0.000       0.000       0.000    
        0.000       0.000       0.000       0.000      4.5000E-04  4.5000E-04  4.5000E-04  4.5000E-04  4.5000E-04  4.5000E-04
       4.5000E-04  4.5000E-04  9.0000E-04  9.0000E-04  9.0000E-04  9.0000E-04  9.0000E-04  9.0000E-04  9.0000E-04  9.0000E-04
       9.0000E-04  9.0000E-04  2.7000E-03  2.7000E-03  2.7000E-03  2.7000E-03  2.7000E-03  2.7000E-03  2.7000E-03  2.7000E-03
       2.7000E-03  2.7000E-03  2.7000E-03  2.7000E-03  9.0000E-03  9.0000E-03  9.0000E-03  9.0000E-03  9.0000E-03  9.0000E-03
       9.0000E-03  9.0000E-03  9.0000E-03  9.0000E-03  9.0000E-03  9.0000E-03  9.0000E-03  2.7000E-03  2.7000E-03  2.7000E-03
       2.7000E-03
  20    0.000       0.000       0.000       0.000       0.000       0.000       0.000       0.000       0.000       0.000    
        0.000       0.000       0.000       0.000       0.000       0.000       0.000       0.000       0.000       0.000    
        0.000       0.000       0.000       0.000       0.000       0.000       0.000       0.000       0.000       0.000    
        0.000       0.000      4.5000E-04  4.5000E-04  4.5000E-04  4.5000E-04  4.5000E-04  4.5000E-04  4.5000E-04  4.5000E-04
       4.5000E-04  9.0000E-04  9.0000E-04  9.0000E-04  9.0000E-04  9.0000E-04  9.0000E-04  9.0000E-04  9.0000E-04  9.0000E-04
       9.0000E-04  9.0000E-04  2.7000E-03  2.7000E-03  2.7000E-03  2.7000E-03  2.7000E-03  2.7000E-03  2.7000E-03  2.7000E-03
       2.7000E-03  2.7000E-03  2.7000E-03  2.7000E-03  9.0000E-03  9.0000E-03  9.0000E-03  9.0000E-03  9.0000E-03  9.0000E-03
       9.0000E-03  9.0000E-03  9.0000E-03  9.0000E-03  9.0000E-03  9.0000E-03  9.0000E-03  2.7000E-03  2.7000E-03  2.7000E-03
       2.7000E-03
  21    0.000       0.000       0.000       0.000       0.000       0.000       0.000       0.000       0.000       0.000    
        0.000       0.000       0.000       0.000       0.000       0.000       0.000       0.000       0.000       0.000    
        0.000       0.000       0.000       0.000       0.000       0.000       0.000       0.000       0.000      4.5000E-04
       4.5000E-04  4.5000E-04  4.5000E-04  4.5000E-04  4.5000E-04  4.5000E-04  4.5000E-04  4.5000E-04  4.5000E-04  9.0000E-04
       9.0000E-04  9.0000E-04  9.0000E-04  9.0000E-04  9.0000E-04  9.0000E-04  9.0000E-04  9.0000E-04  9.0000E-04  9.0000E-04
       9.0000E-04  9.0000E-04  2.7000E-03  2.7000E-03  9.0000E-03  2.7000E-03  2.7000E-03  2.7000E-03  2.7000E-03  2.7000E-03
       2.7000E-03  2.7000E-03  2.7000E-03  2.7000E-03  2.7000E-03  9.0000E-03  9.0000E-03  9.0000E-03  9.0000E-03  9.0000E-03
       9.0000E-03  9.0000E-03  9.0000E-03  9.0000E-03  9.0000E-03  9.0000E-03  9.0000E-03  2.7000E-03  2.7000E-03  2.7000E-03
       2.7000E-03
  22    0.000       0.000       0.000       0.000       0.000       0.000       0.000       0.000       0.000       0.000    
        0.000       0.000       0.000       0.000       0.000       0.000       0.000       0.000       0.000       0.000    
        0.000       0.000       0.000       0.000       0.000       0.000      4.5000E-04  4.5000E-04  4.5000E-04  4.5000E-04
       4.5000E-04  4.5000E-04  4.5000E-04  4.5000E-04  4.5000E-04  4.5000E-04  4.5000E-04  4.5000E-04  9.0000E-04  9.0000E-04
       9.0000E-04  9.0000E-04  9.0000E-04  9.0000E-04  9.0000E-04  9.0000E-04  9.0000E-04  9.0000E-04  9.0000E-04  9.0000E-04
       9.0000E-04  2.7000E-03  2.7000E-03  2.7000E-03  9.0000E-03  2.7000E-03  2.7000E-03  2.7000E-03  2.7000E-03  2.7000E-03
       2.7000E-03  2.7000E-03  2.7000E-03  2.7000E-03  2.7000E-03  2.7000E-03  9.0000E-03  9.0000E-03  9.0000E-03  9.0000E-03
       9.0000E-03  9.0000E-03  9.0000E-03  9.0000E-03  9.0000E-03  9.0000E-03  9.0000E-03  2.7000E-03  2.7000E-03  2.7000E-03
       2.7000E-03
  23    0.000       0.000       0.000       0.000       0.000       0.000       0.000       0.000       0.000       0.000    
        0.000       0.000       0.000       0.000       0.000       0.000       0.000       0.000       0.000       0.000    
        0.000       0.000       0.000       0.000      4.5000E-04  4.5000E-04  4.5000E-04  4.5000E-04  4.5000E-04  4.5000E-04
       4.5000E-04  4.5000E-04  4.5000E-04  4.5000E-04  4.5000E-04  9.0000E-04  9.0000E-04  9.0000E-04  9.0000E-04  9.0000E-04
       9.0000E-04  9.0000E-04  9.0000E-04  9.0000E-04  9.0000E-04  9.0000E-04  9.0000E-04  9.0000E-04  2.7000E-03  2.7000E-03
       2.7000E-03  2.7000E-03  2.7000E-03  2.7000E-03  9.0000E-03  2.7000E-03  2.7000E-03  2.7000E-03  2.7000E-03  2.7000E-03
       2.7000E-03  2.7000E-03  2.7000E-03  2.7000E-03  2.7000E-03  2.7000E-03  2.7000E-03  2.7000E-03  9.0000E-03  9.0000E-03
       9.0000E-03  9.0000E-03  9.0000E-03  9.0000E-03  9.0000E-03  9.0000E-03  9.0000E-03  2.7000E-03  2.7000E-03  2.7000E-03
       2.7000E-03
  24    0.000       0.000       0.000       0.000       0.000       0.000       0.000       0.000       0.000       0.000    
        0.000       0.000       0.000       0.000       0.000       0.000       0.000       0.000       0.000       0.000    
        0.000       0.000      4.5000E-04  4.5000E-04  4.5000E-04  4.5000E-04  4.5000E-04  4.5000E-04  4.5000E-04  9.0000E-04
       9.0000E-04  9.0000E-04  9.0000E-04  9.0000E-04  9.0000E-04  9.0000E-04  9.0000E-04  9.0000E-04  9.0000E-04  9.0000E-04
       9.0000E-04  9.0000E-04  9.0000E-04  9.0000E-04  2.7000E-03  2.7000E-03  2.7000E-03  2.7000E-03  2.7000E-03  2.7000E-03
       2.7000E-03  2.7000E-03  2.7000E-03  2.7000E-03  9.0000E-03  2.7000E-03  2.7000E-03  2.7000E-03  2.7000E-03  2.7000E-03
       2.7000E-03  2.7000E-03  2.7000E-03  2.7000E-03  2.7000E-03  2.7000E-03  2.7000E-03  2.7000E-03  2.7000E-03  9.0000E-03
       9.0000E-03  9.0000E-03  9.0000E-03  9.0000E-03  9.0000E-03  9.0000E-03  2.7000E-03  2.7000E-03  2.7000E-03  2.7000E-03
       2.7000E-03
  25    0.000       0.000       0.000       0.000       0.000       0.000       0.000       0.000       0.000       0.000    
        0.000       0.000       0.000       0.000       0.000       0.000       0.000       0.000       0.000       0.000    
       4.5000E-04  4.5000E-04  4.5000E-04  4.5000E-04  4.5000E-04  4.5000E-04  4.5000E-04  9.0000E-04  9.0000E-04  9.0000E-04
       9.0000E-04  9.0000E-04  9.0000E-04  9.0000E-04  9.0000E-04  9.0000E-04  9.0000E-04  9.0000E-04  9.0000E-04  9.0000E-04
       9.0000E-04  9.0000E-04  9.0000E-04  2.7000E-03  2.7000E-03  2.7000E-03  2.7000E-03  2.7000E-03  2.7000E-03  2.7000E-03
       2.7000E-03  2.7000E-03  2.7000E-03  2.7000E-03  9.0000E-03  9.0000E-03  2.7000E-03  2.7000E-03  2.7000E-03  2.7000E-03
       2.7000E-03  2.7000E-03  2.7000E-03  2.7000E-03  2.7000E-03  2.7000E-03  2.7000E-03  2.7000E-03  2.7000E-03  9.0000E-03
       9.0000E-03  9.0000E-03  9.0000E-03  9.0000E-03  9.0000E-03  2.7000E-03  2.7000E-03  2.7000E-03  2.7000E-03  2.7000E-03
        0.000    
  26    0.000       0.000       0.000       0.000       0.000       0.000       0.000       0.000       0.000       0.000    
        0.000       0.000       0.000       0.000       0.000       0.000       0.000       0.000      4.5000E-04  4.5000E-04
       4.5000E-04  4.5000E-04  4.5000E-04  4.5000E-04  4.5000E-04  4.5000E-04  4.5000E-04  9.0000E-04  9.0000E-04  9.0000E-04
       9.0000E-04  9.0000E-04  9.0000E-04  9.0000E-04  9.0000E-04  9.0000E-04  9.0000E-04  9.0000E-04  9.0000E-04  9.0000E-04
       9.0000E-04  9.0000E-04  2.7000E-03  2.7000E-03  2.7000E-03  2.7000E-03  2.7000E-03  2.7000E-03  2.7000E-03  2.7000E-03
       2.7000E-03  2.7000E-03  2.7000E-03  2.7000E-03  9.0000E-03  9.0000E-03  2.7000E-03  2.7000E-03  2.7000E-03  2.7000E-03
       2.7000E-03  2.7000E-03  2.7000E-03  2.7000E-03  2.7000E-03  2.7000E-03  2.7000E-03  2.7000E-03  2.7000E-03  2.7000E-03
       9.0000E-03  9.0000E-03  9.0000E-03  9.0000E-03  9.0000E-03  2.7000E-03  2.7000E-03  2.7000E-03  2.7000E-03   0.000    
        0.000    
  27    0.000       0.000       0.000       0.000       0.000       0.000       0.000       0.000       0.000       0.000    
        0.000       0.000       0.000       0.000       0.000       0.000       0.000      4.5000E-04  4.5000E-04  4.5000E-04
       4.5000E-04  4.5000E-04  9.0000E-04  9.0000E-04  9.0000E-04  9.0000E-04  9.0000E-04  9.0000E-04  9.0000E-04  9.0000E-04
       9.0000E-04  9.0000E-04  9.0000E-04  9.0000E-04  9.0000E-04  9.0000E-04  9.0000E-04  9.0000E-04  9.0000E-04  9.0000E-04
       9.0000E-04  2.7000E-03  2.7000E-03  2.7000E-03  2.7000E-03  2.7000E-03  2.7000E-03  2.7000E-03  2.7000E-03  2.7000E-03
       2.7000E-03  2.7000E-03  2.7000E-03  2.7000E-03  2.7000E-03  9.0000E-03  2.7000E-03  2.7000E-03  2.7000E-03  2.7000E-03
       2.7000E-03  2.7000E-03  2.7000E-03  2.7000E-03  2.7000E-03  2.7000E-03  2.7000E-03  2.7000E-03  2.7000E-03  2.7000E-03
       2.7000E-03  9.0000E-03  9.0000E-03  9.0000E-03  9.0000E-03  2.7000E-03   0.000       0.000       0.000       0.000    
        0.000    
  28    0.000       0.000       0.000       0.000       0.000       0.000       0.000       0.000       0.000       0.000    
        0.000       0.000       0.000       0.000       0.000       0.000      4.5000E-04  4.5000E-04  4.5000E-04  4.5000E-04
       4.5000E-04  9.0000E-04  9.0000E-04  9.0000E-04  9.0000E-04  9.0000E-04  9.0000E-04  9.0000E-04  9.0000E-04  9.0000E-03
       9.0000E-03  9.0000E-03  9.0000E-03  9.0000E-04  9.0000E-04  9.0000E-04  9.0000E-04  9.0000E-04  9.0000E-04  2.7000E-03
       2.7000E-03  2.7000E-03  2.7000E-03  2.7000E-03  2.7000E-03  2.7000E-03  2.7000E-03  2.7000E-03  2.7000E-03  2.7000E-03
       2.7000E-03  2.7000E-03  2.7000E-03  2.7000E-03  2.7000E-03  9.0000E-03  9.0000E-03  2.7000E-03  2.7000E-03  2.7000E-03
       2.7000E-03  2.7000E-03  2.7000E-03  2.7000E-03  2.7000E-03  2.7000E-03  2.7000E-03  2.7000E-03  2.7000E-03  2.7000E-03
       2.7000E-03  9.0000E-03  9.0000E-03  9.0000E-03  9.0000E-03  2.7000E-03   0.000       0.000       0.000       0.000    
        0.000    
  29    0.000       0.000       0.000       0.000       0.000       0.000       0.000       0.000       0.000       0.000    
        0.000      4.5000E-04  4.5000E-04  9.0000E-04  9.0000E-04  9.0000E-04  9.0000E-04  9.0000E-04  9.0000E-04  9.0000E-04
       9.0000E-04  9.0000E-04  9.0000E-04  9.0000E-04  9.0000E-04  9.0000E-04  9.0000E-04  9.0000E-04  9.0000E-04  9.0000E-03
       9.0000E-03  9.0000E-03  9.0000E-03  9.0000E-03  9.0000E-03  9.0000E-04  9.0000E-04  9.0000E-04  9.0000E-04  2.7000E-03
       2.7000E-03  9.0000E-03  9.0000E-03  2.7000E-02  2.7000E-02  2.7000E-02  2.7000E-02  2.7000E-03  2.7000E-03  2.7000E-03
       2.7000E-03  2.7000E-03  2.7000E-03  2.7000E-03  2.7000E-03  9.0000E-03  9.0000E-03  2.7000E-03  2.7000E-03  2.7000E-03
       2.7000E-03  2.7000E-03  2.7000E-03  2.7000E-03  2.7000E-03  2.7000E-03  2.7000E-03  2.7000E-03  2.7000E-03  2.7000E-03
       2.7000E-03  9.0000E-03  9.0000E-03  9.0000E-03  9.0000E-03  2.7000E-03   0.000       0.000       0.000       0.000    
        0.000    
  30    0.000       0.000       0.000       0.000       0.000       0.000       0.000       0.000       0.000       0.000    
       4.5000E-04  4.5000E-04  9.0000E-04  9.0000E-04  9.0000E-04  9.0000E-04  9.0000E-03  9.0000E-03  9.0000E-03  9.0000E-03
       9.0000E-03  9.0000E-03  9.0000E-03  9.0000E-03  9.0000E-03  9.0000E-03  9.0000E-03  9.0000E-03  9.0000E-03  9.0000E-03
       9.0000E-03  9.0000E-03  9.0000E-03  9.0000E-03  9.0000E-03  9.0000E-03  9.0000E-03  9.0000E-03  9.0000E-03  9.0000E-03
       9.0000E-03  2.7000E-02  2.7000E-02  2.7000E-02  2.7000E-02  2.7000E-02  2.7000E-02  2.7000E-02  9.0000E-03  2.7000E-03
       2.7000E-03  2.7000E-03  2.7000E-03  2.7000E-03  2.7000E-03  9.0000E-03  9.0000E-03  2.7000E-03  2.7000E-03  2.7000E-03
       2.7000E-03  2.7000E-03  2.7000E-03  2.7000E-03  2.7000E-03  2.7000E-03  2.7000E-03  2.7000E-03  2.7000E-03  2.7000E-03
       2.7000E-03  9.0000E-03  9.0000E-03  2.7000E-02  9.0000E-03  2.7000E-03   0.000       0.000       0.000       0.000    
        0.000    
  31    0.000       0.000       0.000       0.000       0.000       0.000       0.000       0.000       0.000      4.5000E-04
       4.5000E-04  4.5000E-04  9.0000E-04  9.0000E-04  9.0000E-04  9.0000E-04  9.0000E-03  9.0000E-03  9.0000E-03  9.0000E-03
       9.0000E-03  9.0000E-03  9.0000E-03  9.0000E-03  9.0000E-03  9.0000E-03  9.0000E-03  2.7000E-02  2.7000E-02  2.7000E-02
       2.7000E-02  2.7000E-02  2.7000E-02  2.7000E-02  2.7000E-02  2.7000E-02  2.7000E-02  2.7000E-02  2.7000E-02  2.7000E-02
       2.7000E-02  2.7000E-02  2.7000E-02  2.7000E-02  2.7000E-02  2.7000E-02  2.7000E-02  2.7000E-02  9.0000E-03  2.7000E-02
       9.0000E-03  2.7000E-03  2.7000E-03  2.7000E-03  2.7000E-03  9.0000E-03  9.0000E-03  2.7000E-03  2.7000E-03  2.7000E-03
       2.7000E-03  2.7000E-03  2.7000E-03  2.7000E-03  2.7000E-03  2.7000E-03  2.7000E-03  2.7000E-03  2.7000E-03  2.7000E-03
       2.7000E-03  9.0000E-03  9.0000E-03  2.7000E-02  9.0000E-03  2.7000E-03   0.000       0.000       0.000       0.000    
        0.000    
  32    0.000       0.000       0.000       0.000       0.000       0.000       0.000       0.000      4.5000E-04  4.5000E-04
       4.5000E-04  4.5000E-04  9.0000E-04  9.0000E-04  9.0000E-04  9.0000E-04  9.0000E-04  9.0000E-04  9.0000E-04  9.0000E-04
       9.0000E-04  9.0000E-04  9.0000E-04  9.0000E-04  9.0000E-04  9.0000E-04  2.7000E-03  2.7000E-03  2.7000E-03  2.7000E-03
       2.7000E-03  2.7000E-03  9.0000E-03  9.0000E-03  2.7000E-02  2.7000E-02  2.7000E-02  2.7000E-02  2.7000E-02  2.7000E-02
       2.7000E-02  2.7000E-02  9.0000E-03  9.0000E-03  9.0000E-03  9.0000E-03  9.0000E-03  2.7000E-02  9.0000E-03  2.7000E-02
       2.7000E-02  9.0000E-03  2.7000E-03  2.7000E-03  2.7000E-03  9.0000E-03  9.0000E-03  2.7000E-03  2.7000E-03  2.7000E-03
       2.7000E-03  2.7000E-03  2.7000E-03  2.7000E-03  2.7000E-03  2.7000E-03  2.7000E-03  2.7000E-03  2.7000E-03  2.7000E-03
       2.7000E-03  9.0000E-03  9.0000E-03  2.7000E-02  9.0000E-03  2.7000E-03   0.000       0.000       0.000       0.000    
        0.000    
  33    0.000       0.000       0.000       0.000       0.000       0.000       0.000      4.5000E-04  4.5000E-04  4.5000E-04
       4.5000E-04  4.5000E-04  9.0000E-04  9.0000E-04  9.0000E-04  9.0000E-04  9.0000E-04  9.0000E-04  9.0000E-04  9.0000E-04
       9.0000E-04  9.0000E-04  9.0000E-04  9.0000E-04  9.0000E-04  2.7000E-03  2.7000E-03  2.7000E-03  2.7000E-03  2.7000E-03
       2.7000E-03  2.7000E-03  9.0000E-03  2.7000E-02  2.7000E-02  2.7000E-02  2.7000E-02  2.7000E-02  2.7000E-02  2.7000E-02
       2.7000E-02  2.7000E-03  2.7000E-03  2.7000E-03  2.7000E-03  2.7000E-03  9.0000E-03  9.0000E-03  2.7000E-02  2.7000E-02
       2.7000E-02  2.7000E-02  9.0000E-03  9.0000E-03  9.0000E-03  9.0000E-03  9.0000E-03  9.0000E-03  9.0000E-03  9.0000E-03
       2.7000E-03  2.7000E-03  2.7000E-03  2.7000E-03  2.7000E-03  2.7000E-03  2.7000E-03  2.7000E-03  2.7000E-03  2.7000E-03
       2.7000E-03  9.0000E-03  9.0000E-03  2.7000E-02  9.0000E-03  2.7000E-03   0.000       0.000       0.000       0.000    
        0.000    
  34    0.000       0.000       0.000       0.000       0.000       0.000      4.5000E-04  4.5000E-04  4.5000E-04  4.5000E-04
       4.5000E-04  9.0000E-04  9.0000E-04  9.0000E-04  9.0000E-04  9.0000E-04  9.0000E-04  9.0000E-04  9.0000E-04  9.0000E-04
       9.0000E-04  9.0000E-04  2.7000E-03  2.7000E-03  2.7000E-03  2.7000E-03  2.7000E-03  2.7000E-03  2.7000E-03  2.7000E-03
       2.7000E-03  2.7000E-03  2.7000E-02  2.7000E-02  9.0000E-03  9.0000E-03  2.7000E-02  2.7000E-02  2.7000E-02  2.7000E-02
       2.7000E-02  2.7000E-03  2.7000E-03  2.7000E-03  2.7000E-03  2.7000E-03  9.0000E-03  9.0000E-03  2.7000E-02  2.7000E-02
       2.7000E-02  2.7000E-02  2.7000E-02  2.7000E-02  2.7000E-02  2.7000E-02  2.7000E-02  2.7000E-02  2.7000E-02  2.7000E-02
       2.7000E-03  2.7000E-03  2.7000E-03  2.7000E-03  2.7000E-03  2.7000E-03  2.7000E-03  2.7000E-03  2.7000E-03  2.7000E-03
       2.7000E-03  9.0000E-03  9.0000E-03  2.7000E-02  9.0000E-03  2.7000E-03   0.000       0.000       0.000       0.000    
        0.000    
  35    0.000       0.000       0.000       0.000       0.000      4.5000E-04  4.5000E-04  4.5000E-04  4.5000E-04  4.5000E-04
       4.5000E-04  9.0000E-04  9.0000E-04  9.0000E-04  9.0000E-04  9.0000E-04  9.0000E-04  9.0000E-04  2.7000E-03  2.7000E-03
       2.7000E-03  2.7000E-03  2.7000E-03  2.7000E-03  2.7000E-03  2.7000E-02  2.7000E-02  2.7000E-03  2.7000E-03  2.7000E-03
       2.7000E-03  2.7000E-02  2.7000E-02  9.0000E-03  9.0000E-03  9.0000E-03  2.7000E-02  2.7000E-02  2.7000E-02  2.7000E-02
       2.7000E-02  2.7000E-03  2.7000E-03  2.7000E-03  2.7000E-03  2.7000E-03  9.0000E-03  2.7000E-02  2.7000E-02  2.7000E-02
       2.7000E-02  2.7000E-02  2.7000E-02  2.7000E-02  2.7000E-02  2.7000E-02  2.7000E-02  2.7000E-02  2.7000E-02  2.7000E-02
       2.7000E-03  2.7000E-03  2.7000E-03  2.7000E-03  2.7000E-03  2.7000E-03  2.7000E-03  2.7000E-03  2.7000E-03  2.7000E-03
       2.7000E-03  9.0000E-03  9.0000E-03  2.7000E-02  9.0000E-03  2.7000E-03   0.000       0.000       0.000       0.000    
        0.000    
  36    0.000       0.000       0.000       0.000       0.000      4.5000E-04  4.5000E-04  4.5000E-04  4.5000E-04  4.5000E-04
       9.0000E-04  9.0000E-04  9.0000E-04  9.0000E-04  9.0000E-03  9.0000E-03  9.0000E-03  9.0000E-03  9.0000E-03  9.0000E-03
       9.0000E-03  9.0000E-03  9.0000E-03  9.0000E-03  2.7000E-02  2.7000E-02  2.7000E-02  2.7000E-02  2.7000E-02  2.7000E-02
       2.7000E-02  2.7000E-02  9.0000E-03  9.0000E-03  9.0000E-03  9.0000E-03  2.7000E-02  2.7000E-02  2.7000E-02  2.7000E-02
       2.7000E-02  2.7000E-03  2.7000E-03  2.7000E-03  2.7000E-03  2.7000E-03  9.0000E-03  2.7000E-02  2.7000E-02  2.7000E-03
       2.7000E-03  2.7000E-02  2.7000E-02  2.7000E-02  2.7000E-02  2.7000E-02  2.7000E-02  2.7000E-02  2.7000E-02  2.7000E-02
       9.0000E-03  9.0000E-03  9.0000E-03  2.7000E-03  2.7000E-03  2.7000E-03  2.7000E-03  2.7000E-03  2.7000E-03  2.7000E-03
       2.7000E-03  9.0000E-03  9.0000E-03  9.0000E-03  9.0000E-03  2.7000E-03   0.000       0.000       0.000       0.000    
        0.000    
  37    0.000       0.000       0.000       0.000       0.000      4.5000E-04  4.5000E-04  4.5000E-04  4.5000E-04  9.0000E-04
       9.0000E-04  9.0000E-04  9.0000E-04  9.0000E-03  9.0000E-03  9.0000E-03  9.0000E-03  9.0000E-03  9.0000E-03  9.0000E-03
       9.0000E-03  9.0000E-03  2.7000E-02  2.7000E-02  2.7000E-02  9.0000E-03  9.0000E-03  9.0000E-03  9.0000E-03  9.0000E-03
       9.0000E-03  9.0000E-03  9.0000E-03  9.0000E-03  9.0000E-03  9.0000E-03  2.7000E-02  2.7000E-02  2.7000E-02  2.7000E-02
       2.7000E-03  2.7000E-03  2.7000E-03  2.7000E-03  2.7000E-03  2.7000E-03  2.7000E-02  2.7000E-02  2.7000E-03  2.7000E-03
       2.7000E-03  9.0000E-03  9.0000E-03  9.0000E-03  9.0000E-03  2.7000E-02  2.7000E-02  2.7000E-02  2.7000E-02  2.7000E-02
       2.7000E-02  9.0000E-03  9.0000E-03  9.0000E-03  2.7000E-03  2.7000E-03  9.0000E-03  9.0000E-03  2.7000E-03  2.7000E-03
       2.7000E-03  9.0000E-03  9.0000E-03  2.7000E-03  2.7000E-03  9.0000E-04   0.000       0.000       0.000       0.000    
        0.000    
  38    0.000       0.000       0.000       0.000       0.000      4.5000E-04  4.5000E-04  4.5000E-04  4.5000E-04  9.0000E-04
       9.0000E-04  9.0000E-04  9.0000E-04  9.0000E-03  9.0000E-03  9.0000E-03  2.7000E-02  2.7000E-02  2.7000E-02  2.7000E-02
       2.7000E-02  2.7000E-02  2.7000E-02  2.7000E-02  9.0000E-03  9.0000E-03  9.0000E-03  9.0000E-03  9.0000E-03  9.0000E-03
       9.0000E-03  9.0000E-03  9.0000E-03  9.0000E-03  9.0000E-03  9.0000E-03  2.7000E-02  2.7000E-02  2.7000E-02  9.0000E-03
       2.7000E-03  2.7000E-03  2.7000E-03  2.7000E-03  2.7000E-03  2.7000E-03  2.7000E-02  2.7000E-02  2.7000E-03  2.7000E-03
       2.7000E-03  2.7000E-03  9.0000E-03  9.0000E-03  9.0000E-03  9.0000E-03  9.0000E-03  2.7000E-02  2.7000E-02  2.7000E-02
       2.7000E-02  2.7000E-02  2.7000E-02  2.7000E-02  9.0000E-03  9.0000E-03  9.0000E-03  9.0000E-03  9.0000E-03  2.7000E-03
       2.7000E-03  9.0000E-03  9.0000E-03  2.7000E-03  2.7000E-03  9.0000E-04  4.5000E-04   0.000       0.000       0.000    
        0.000    
  39    0.000       0.000       0.000       0.000       0.000      4.5000E-04  4.5000E-04  4.5000E-04  9.0000E-04  9.0000E-04
       9.0000E-04  9.0000E-04  9.0000E-03  9.0000E-03  2.7000E-02  2.7000E-02  2.7000E-02  9.0000E-03  9.0000E-03  9.0000E-03
       9.0000E-03  9.0000E-03  9.0000E-03  9.0000E-03  9.0000E-03  9.0000E-03  9.0000E-03  9.0000E-03  9.0000E-03  9.0000E-03
       9.0000E-03  9.0000E-03  9.0000E-03  9.0000E-03  9.0000E-03  9.0000E-03  2.7000E-02  2.7000E-02  2.7000E-02  9.0000E-03
       2.7000E-03  2.7000E-03  2.7000E-03  2.7000E-03  2.7000E-03  2.7000E-03  2.7000E-02  2.7000E-02  2.7000E-03  2.7000E-03
       2.7000E-03  2.7000E-03  9.0000E-03  9.0000E-03  9.0000E-03  9.0000E-03  9.0000E-03  9.0000E-03  9.0000E-03  9.0000E-03
       2.7000E-02  2.7000E-02  2.7000E-02  2.7000E-02  2.7000E-02  2.7000E-02  2.7000E-02  9.0000E-03  9.0000E-03  9.0000E-03
       9.0000E-03  9.0000E-03  9.0000E-03  2.7000E-03  2.7000E-03  9.0000E-04  4.5000E-04   0.000       0.000       0.000    
        0.000    
  40    0.000       0.000       0.000       0.000      4.5000E-04  4.5000E-04  4.5000E-04  9.0000E-04  9.0000E-04  9.0000E-04
       9.0000E-04  2.7000E-02  2.7000E-02  2.7000E-02  2.7000E-02  2.7000E-02  9.0000E-03  9.0000E-03  9.0000E-03  9.0000E-03
       9.0000E-03  9.0000E-03  9.0000E-03  9.0000E-03  9.0000E-03  9.0000E-03  9.0000E-03  9.0000E-03  9.0000E-03  9.0000E-03
       9.0000E-03  9.0000E-03  9.0000E-03  9.0000E-03  9.0000E-03  9.0000E-03  2.7000E-02  2.7000E-02  2.7000E-02  9.0000E-03
       2.7000E-03  2.7000E-03  2.7000E-03  2.7000E-03  2.7000E-03  2.7000E-03  2.7000E-02  2.7000E-02  2.7000E-03  2.7000E-03
       2.7000E-03  2.7000E-03  2.7000E-03  9.0000E-04  9.0000E-04  9.0000E-04  9.0000E-04  9.0000E-04  9.0000E-04  2.7000E-03
       2.7000E-02  2.7000E-02  2.7000E-02  2.7000E-02  2.7000E-02  2.7000E-02  2.7000E-02  2.7000E-02  2.7000E-02  9.0000E-03
       9.0000E-03  9.0000E-03  9.0000E-03  2.7000E-03  2.7000E-03  9.0000E-04  4.5000E-04  4.5000E-04   0.000       0.000    
        0.000    
  41    0.000       0.000       0.000       0.000      4.5000E-04  4.5000E-04  9.0000E-04  9.0000E-04  9.0000E-04  9.0000E-04
       9.0000E-04  2.7000E-02  2.7000E-02  2.7000E-02  2.7000E-02  2.7000E-02  9.0000E-03  2.7000E-03  2.7000E-03  2.7000E-03
       2.7000E-03  2.7000E-03  2.7000E-03  2.7000E-03  2.7000E-03  2.7000E-03  2.7000E-03  2.7000E-03  2.7000E-03  2.7000E-03
       2.7000E-03  2.7000E-03  9.0000E-03  9.0000E-03  9.0000E-03  9.0000E-03  2.7000E-02  2.7000E-02  2.7000E-02  2.7000E-03
       9.0000E-04  9.0000E-04  9.0000E-04  9.0000E-04  9.0000E-04  9.0000E-04  2.7000E-02  2.7000E-02  2.7000E-03  2.7000E-03
       2.7000E-03  2.7000E-03  2.7000E-03  9.0000E-04  9.0000E-04  9.0000E-04  9.0000E-04  9.0000E-04  9.0000E-04  2.7000E-03
       2.7000E-03  2.7000E-02  2.7000E-02  2.7000E-02  9.0000E-03  9.0000E-03  2.7000E-02  2.7000E-02  2.7000E-02  2.7000E-02
       2.7000E-02  2.7000E-02  2.7000E-02  9.0000E-03  2.7000E-03  9.0000E-04  4.5000E-04  4.5000E-04  4.5000E-04   0.000    
        0.000    
  42    0.000       0.000       0.000      4.5000E-04  4.5000E-04  4.5000E-04  9.0000E-04  9.0000E-04  9.0000E-04  2.7000E-02
       2.7000E-02  2.7000E-02  2.7000E-02  9.0000E-03  9.0000E-04  9.0000E-04  9.0000E-04  9.0000E-04  9.0000E-04  2.7000E-03
       2.7000E-03  2.7000E-03  2.7000E-03  2.7000E-03  2.7000E-03  2.7000E-03  2.7000E-03  2.7000E-03  2.7000E-03  2.7000E-03
       2.7000E-03  2.7000E-03  9.0000E-03  9.0000E-03  9.0000E-03  9.0000E-03  2.7000E-02  2.7000E-02  2.7000E-02  2.7000E-03
       9.0000E-04  9.0000E-04  9.0000E-04  9.0000E-04  9.0000E-04  9.0000E-04  2.7000E-02  2.7000E-02  2.7000E-03  2.7000E-03
       2.7000E-03  2.7000E-03  2.7000E-03  9.0000E-04  9.0000E-04  9.0000E-04  9.0000E-04  9.0000E-04  9.0000E-04  2.7000E-03
       2.7000E-03  2.7000E-02  2.7000E-02  9.0000E-03  9.0000E-03  2.7000E-03  9.0000E-03  9.0000E-03  2.7000E-02  2.7000E-02
       2.7000E-02  2.7000E-02  2.7000E-02  9.0000E-03  9.0000E-03  9.0000E-03  9.0000E-03  9.0000E-04  9.0000E-04   0.000    
        0.000    
  43    0.000       0.000       0.000      4.5000E-04  4.5000E-04  9.0000E-04  9.0000E-04  9.0000E-04  9.0000E-04  2.7000E-02
       2.7000E-02  2.7000E-02  9.0000E-03  9.0000E-04  9.0000E-04  9.0000E-04  9.0000E-04  9.0000E-04  9.0000E-04  9.0000E-04
       2.7000E-03  2.7000E-03  2.7000E-03  2.7000E-03  2.7000E-03  2.7000E-03  2.7000E-03  2.7000E-03  2.7000E-03  2.7000E-03
       2.7000E-03  2.7000E-03  9.0000E-03  9.0000E-03  9.0000E-03  9.0000E-03  2.7000E-02  2.7000E-02  2.7000E-02  2.7000E-03
       9.0000E-04  9.0000E-04  9.0000E-04  9.0000E-04  9.0000E-04  9.0000E-04  2.7000E-02  9.0000E-03  2.7000E-03  2.7000E-03
       4.5000E-04  4.5000E-04  4.5000E-04  4.5000E-04  4.5000E-04  4.5000E-04  4.5000E-04  9.0000E-04  9.0000E-04  2.7000E-03
       2.7000E-03  2.7000E-02  2.7000E-02  9.0000E-03  2.7000E-03  2.7000E-03  2.7000E-03  2.7000E-03  2.7000E-03  2.7000E-03
       2.7000E-03  2.7000E-02  2.7000E-02  2.7000E-02  2.7000E-02  2.7000E-02  2.7000E-02  2.7000E-02  2.7000E-02  8.1000E-02
        0.000    
  44    0.000       0.000      4.5000E-04  4.5000E-04  9.0000E-04  9.0000E-04  9.0000E-04  9.0000E-04  9.0000E-03  9.0000E-03
       9.0000E-03  9.0000E-03  9.0000E-04  9.0000E-04  9.0000E-04  9.0000E-04  9.0000E-04  9.0000E-04  9.0000E-04  9.0000E-04
       9.0000E-04  2.7000E-03  2.7000E-03  2.7000E-03  2.7000E-03  2.7000E-03  2.7000E-03  2.7000E-03  2.7000E-03  2.7000E-03
       2.7000E-03  2.7000E-03  9.0000E-03  9.0000E-03  9.0000E-03  9.0000E-03  2.7000E-02  2.7000E-02  2.7000E-02  2.7000E-03
       9.0000E-04  9.0000E-04  9.0000E-04  9.0000E-04  9.0000E-04  9.0000E-04  2.7000E-02  9.0000E-03  2.7000E-03  2.7000E-03
       4.5000E-04  4.5000E-04  4.5000E-04  4.5000E-04  4.5000E-04  4.5000E-04  4.5000E-04  9.0000E-04  9.0000E-04  2.7000E-03
       2.7000E-03  2.7000E-02  9.0000E-03  2.7000E-03  2.7000E-03  2.7000E-03  2.7000E-03  2.7000E-03  2.7000E-03  2.7000E-03
       2.7000E-03  9.0000E-03  2.7000E-02  2.7000E-02  2.7000E-02  2.7000E-02  2.7000E-02  2.7000E-02  2.7000E-02  8.1000E-02
        0.000    
  45    0.000      4.5000E-04  4.5000E-04  9.0000E-04  9.0000E-04  9.0000E-04  9.0000E-03  9.0000E-03  9.0000E-03  9.0000E-03
       9.0000E-03  9.0000E-03  9.0000E-04  9.0000E-04  9.0000E-04  9.0000E-04  9.0000E-04  9.0000E-04  9.0000E-04  9.0000E-04
       9.0000E-04  9.0000E-04  2.7000E-03  2.7000E-03  2.7000E-03  2.7000E-03  2.7000E-03  2.7000E-03  2.7000E-03  2.7000E-03
       2.7000E-03  2.7000E-03  9.0000E-03  9.0000E-03  9.0000E-03  9.0000E-03  2.7000E-02  2.7000E-02  2.7000E-02  2.7000E-02
       9.0000E-04  9.0000E-04  9.0000E-04  9.0000E-04  9.0000E-04  9.0000E-04  2.7000E-02  9.0000E-03  2.7000E-03  2.7000E-03
       4.5000E-04  4.5000E-04  4.5000E-04  4.5000E-04  4.5000E-04  4.5000E-04  4.5000E-04  9.0000E-04  9.0000E-04  2.7000E-03
       2.7000E-03  2.7000E-02  9.0000E-03  2.7000E-03  2.7000E-03  2.7000E-03  2.7000E-03  2.7000E-03  2.7000E-03  2.7000E-03
       2.7000E-03  9.0000E-03  2.7000E-02  2.7000E-02  2.7000E-02  2.7000E-02  2.7000E-02  2.7000E-02  2.7000E-02  8.1000E-02
        0.000    
  46    0.000      4.5000E-04  9.0000E-04  9.0000E-04  9.0000E-04  9.0000E-03  9.0000E-03  9.0000E-03  9.0000E-03  9.0000E-04
       9.0000E-04  9.0000E-04  9.0000E-04  9.0000E-04  9.0000E-04  9.0000E-04  9.0000E-04  9.0000E-04  9.0000E-04  9.0000E-04
       9.0000E-04  9.0000E-04  2.7000E-03  2.7000E-03  2.7000E-03  2.7000E-03  2.7000E-03  2.7000E-03  2.7000E-03  2.7000E-03
       2.7000E-03  2.7000E-03  9.0000E-03  9.0000E-03  9.0000E-03  2.7000E-02  2.7000E-02  2.7000E-02  2.7000E-02  2.7000E-02
       9.0000E-04  9.0000E-04  9.0000E-04  9.0000E-04  9.0000E-04  9.0000E-04  2.7000E-02  2.7000E-02  9.0000E-03  2.7000E-03
       4.5000E-04  4.5000E-04  4.5000E-04  4.5000E-04  4.5000E-04  4.5000E-04  4.5000E-04  9.0000E-04  9.0000E-04  2.7000E-03
       2.7000E-03  9.0000E-03  9.0000E-03  2.7000E-03  2.7000E-03  2.7000E-03  2.7000E-03  2.7000E-03  2.7000E-03  2.7000E-03
       2.7000E-03  9.0000E-03  9.0000E-03  2.7000E-02  2.7000E-02  2.7000E-02  9.0000E-03  9.0000E-03   0.000       0.000    
        0.000    
  47   4.5000E-04  4.5000E-04  9.0000E-04  9.0000E-04  9.0000E-04  9.0000E-04  9.0000E-04  9.0000E-04  9.0000E-04  9.0000E-04
       9.0000E-04  9.0000E-04  9.0000E-04  9.0000E-04  9.0000E-04  9.0000E-04  9.0000E-04  9.0000E-04  9.0000E-04  9.0000E-04
       9.0000E-04  9.0000E-04  9.0000E-04  2.7000E-03  2.7000E-03  2.7000E-03  2.7000E-03  2.7000E-03  2.7000E-03  2.7000E-03
       2.7000E-03  2.7000E-03  9.0000E-03  9.0000E-03  9.0000E-03  2.7000E-02  2.7000E-02  2.7000E-02  2.7000E-02  2.7000E-02
       9.0000E-04  9.0000E-04  9.0000E-04  9.0000E-04  9.0000E-04  9.0000E-04  9.0000E-04  2.7000E-02  9.0000E-03  2.7000E-03
       4.5000E-04  4.5000E-04  4.5000E-04  4.5000E-04  4.5000E-04  4.5000E-04  4.5000E-04  9.0000E-04  9.0000E-04  2.7000E-03
       2.7000E-03  9.0000E-03  9.0000E-03  2.7000E-03  2.7000E-03  2.7000E-03  2.7000E-03  2.7000E-03  2.7000E-03  2.7000E-03
       2.7000E-03  9.0000E-03  9.0000E-03  2.7000E-02  2.7000E-02  9.0000E-03  9.0000E-03  9.0000E-04   0.000       0.000    
        0.000    
  48    0.000      4.5000E-04  4.5000E-04  9.0000E-04  9.0000E-04  9.0000E-04  9.0000E-04  9.0000E-04  9.0000E-04  9.0000E-04
       9.0000E-04  9.0000E-04  9.0000E-04  9.0000E-04  9.0000E-04  9.0000E-04  9.0000E-04  9.0000E-04  9.0000E-04  9.0000E-04
       9.0000E-04  9.0000E-04  9.0000E-04  2.7000E-03  2.7000E-03  2.7000E-03  2.7000E-03  2.7000E-03  2.7000E-03  2.7000E-03
       2.7000E-03  2.7000E-03  9.0000E-03  9.0000E-03  9.0000E-03  2.7000E-02  2.7000E-02  2.7000E-02  2.7000E-02  2.7000E-03
       9.0000E-04  9.0000E-04  9.0000E-04  9.0000E-04  9.0000E-04  9.0000E-04  9.0000E-04  2.7000E-02  2.7000E-02  9.0000E-03
       4.5000E-04  4.5000E-04  4.5000E-04  4.5000E-04  4.5000E-04  4.5000E-04  4.5000E-04  9.0000E-04  9.0000E-04  2.7000E-03
       2.7000E-03  9.0000E-03  9.0000E-03  2.7000E-03  2.7000E-03  2.7000E-03  2.7000E-03  2.7000E-03  2.7000E-03  2.7000E-03
       2.7000E-03  9.0000E-03  2.7000E-02  2.7000E-02  9.0000E-03  2.7000E-03  9.0000E-04   0.000       0.000       0.000    
        0.000    
  49    0.000       0.000      4.5000E-04  4.5000E-04  4.5000E-04  4.5000E-04  4.5000E-04  4.5000E-04  4.5000E-04  4.5000E-04
       4.5000E-04  4.5000E-04  4.5000E-04  4.5000E-04  4.5000E-04  4.5000E-04  4.5000E-04  9.0000E-04  9.0000E-04  9.0000E-04
       9.0000E-04  9.0000E-04  9.0000E-04  9.0000E-04  9.0000E-04  2.7000E-03  2.7000E-03  2.7000E-03  2.7000E-03  2.7000E-03
       2.7000E-03  2.7000E-03  9.0000E-03  9.0000E-03  9.0000E-03  2.7000E-02  2.7000E-02  2.7000E-02  2.7000E-02  2.7000E-03
       9.0000E-04  9.0000E-04  9.0000E-04  9.0000E-04  9.0000E-04  9.0000E-04  9.0000E-04  2.7000E-02  2.7000E-02  9.0000E-03
       4.5000E-04  4.5000E-04  4.5000E-04  4.5000E-04  4.5000E-04  4.5000E-04  4.5000E-04  9.0000E-04  9.0000E-04  2.7000E-03
       2.7000E-03  9.0000E-03  9.0000E-03  2.7000E-03  2.7000E-03  2.7000E-03  2.7000E-03  2.7000E-03  2.7000E-03  2.7000E-03
       9.0000E-03  9.0000E-03  2.7000E-02  9.0000E-03  2.7000E-03  2.7000E-03  9.0000E-04   0.000       0.000       0.000    
        0.000    
  50    0.000       0.000       0.000      4.5000E-04  4.5000E-04  4.5000E-04  4.5000E-04  4.5000E-04  4.5000E-04  4.5000E-04
       4.5000E-04  4.5000E-04  4.5000E-04  4.5000E-04  4.5000E-04  4.5000E-04  4.5000E-04  9.0000E-04  9.0000E-04  9.0000E-04
       9.0000E-04  9.0000E-04  9.0000E-04  9.0000E-04  9.0000E-04  9.0000E-04  2.7000E-03  2.7000E-03  2.7000E-03  2.7000E-03
       2.7000E-03  2.7000E-03  9.0000E-03  9.0000E-03  9.0000E-03  2.7000E-02  2.7000E-02  2.7000E-02  2.7000E-02  2.7000E-03
       9.0000E-04  9.0000E-04  9.0000E-04  9.0000E-04  9.0000E-04  9.0000E-04  9.0000E-04  2.7000E-02  2.7000E-02  9.0000E-03
       4.5000E-04  4.5000E-04  4.5000E-04  4.5000E-04  4.5000E-04  4.5000E-04  4.5000E-04  9.0000E-04  9.0000E-04  2.7000E-03
       2.7000E-03  9.0000E-03  9.0000E-03  2.7000E-03  2.7000E-03  2.7000E-03  2.7000E-03  2.7000E-03  2.7000E-03  2.7000E-03
       9.0000E-03  2.7000E-02  2.7000E-02  9.0000E-03  2.7000E-03  2.7000E-03  9.0000E-04   0.000       0.000       0.000    
        0.000    
  51    0.000       0.000       0.000       0.000       0.000       0.000       0.000      4.5000E-04  4.5000E-04  4.5000E-04
       4.5000E-04  4.5000E-04  4.5000E-04   0.000      4.5000E-04  4.5000E-04  4.5000E-04  4.5000E-04  9.0000E-04  9.0000E-04
       9.0000E-04  9.0000E-04  9.0000E-04  9.0000E-04  9.0000E-04  9.0000E-04  9.0000E-04  2.7000E-03  2.7000E-03  2.7000E-03
       2.7000E-03  2.7000E-03  9.0000E-03  9.0000E-03  9.0000E-03  2.7000E-02  2.7000E-02  2.7000E-02  2.7000E-02  2.7000E-03
       9.0000E-04  4.5000E-04  4.5000E-04  4.5000E-04  4.5000E-04  4.5000E-04  9.0000E-04  2.7000E-02  9.0000E-03  9.0000E-03
       4.5000E-04  4.5000E-04  4.5000E-04  4.5000E-04  4.5000E-04  4.5000E-04  4.5000E-04  9.0000E-04  9.0000E-04  2.7000E-03
       2.7000E-03  9.0000E-03  9.0000E-03  2.7000E-03  2.7000E-03  2.7000E-03  2.7000E-03  2.7000E-03  2.7000E-03  2.7000E-03
       2.7000E-02  2.7000E-02  9.0000E-03  9.0000E-03  2.7000E-03  2.7000E-03   0.000       0.000       0.000       0.000    
        0.000    
  52    0.000       0.000       0.000       0.000       0.000       0.000       0.000       0.000       0.000       0.000    
        0.000       0.000       0.000       0.000       0.000      4.5000E-04  4.5000E-04  4.5000E-04  9.0000E-04  9.0000E-04
       9.0000E-04  9.0000E-04  9.0000E-04  9.0000E-04  9.0000E-04  9.0000E-04  9.0000E-04  9.0000E-04  2.7000E-03  2.7000E-03
       2.7000E-03  2.7000E-03  9.0000E-03  9.0000E-03  9.0000E-03  2.7000E-02  2.7000E-02  2.7000E-02  2.7000E-03  2.7000E-03
       9.0000E-04  4.5000E-04  4.5000E-04  4.5000E-04  4.5000E-04  4.5000E-04  9.0000E-04  9.0000E-03  9.0000E-03  9.0000E-03
       4.5000E-04  4.5000E-04  4.5000E-04  4.5000E-04  4.5000E-04  4.5000E-04  4.5000E-04  9.0000E-04  9.0000E-04  2.7000E-03
       9.0000E-03  9.0000E-03  9.0000E-03  2.7000E-03  2.7000E-03  2.7000E-03  2.7000E-03  2.7000E-03  2.7000E-03  2.7000E-03
       2.7000E-02  2.7000E-02  9.0000E-03  9.0000E-03  2.7000E-03  2.7000E-03   0.000       0.000       0.000       0.000    
        0.000    
  53    0.000       0.000       0.000       0.000       0.000       0.000       0.000       0.000       0.000       0.000    
        0.000       0.000       0.000       0.000       0.000       0.000       0.000      4.5000E-04  4.5000E-04  9.0000E-04
       9.0000E-04  9.0000E-04  9.0000E-04  9.0000E-04  9.0000E-04  9.0000E-04  9.0000E-04  9.0000E-04  2.7000E-03  2.7000E-03
       2.7000E-03  2.7000E-03  9.0000E-03  9.0000E-03  9.0000E-03  2.7000E-02  2.7000E-02  2.7000E-02  2.7000E-03  2.7000E-03
       9.0000E-04  4.5000E-04  4.5000E-04  4.5000E-04  4.5000E-04  4.5000E-04  9.0000E-04  9.0000E-03  9.0000E-03  9.0000E-03
       4.5000E-04  4.5000E-04  4.5000E-04  4.5000E-04  4.5000E-04  4.5000E-04  4.5000E-04  9.0000E-04  9.0000E-04  2.7000E-03
       9.0000E-03  9.0000E-03  9.0000E-03  2.7000E-03  2.7000E-03  2.7000E-03  2.7000E-03  2.7000E-03  2.7000E-03  2.7000E-03
       2.7000E-02  2.7000E-02  9.0000E-03  9.0000E-03  2.7000E-03  2.7000E-03   0.000       0.000       0.000       0.000    
        0.000    
  54    0.000       0.000       0.000       0.000       0.000       0.000       0.000       0.000       0.000       0.000    
        0.000       0.000       0.000       0.000       0.000       0.000       0.000      4.5000E-04  4.5000E-04  4.5000E-04
       9.0000E-04  9.0000E-04  9.0000E-04  9.0000E-04  9.0000E-04  9.0000E-04  9.0000E-04  9.0000E-04  9.0000E-04  2.7000E-03
       2.7000E-03  2.7000E-03  9.0000E-03  9.0000E-03  9.0000E-03  2.7000E-02  2.7000E-02  2.7000E-02  2.7000E-03  2.7000E-03
       9.0000E-04  4.5000E-04  4.5000E-04  4.5000E-04  4.5000E-04  4.5000E-04  9.0000E-04  9.0000E-03  9.0000E-03  9.0000E-03
       4.5000E-04  4.5000E-04  4.5000E-04  4.5000E-04  4.5000E-04  4.5000E-04  4.5000E-04  9.0000E-04  9.0000E-04  2.7000E-03
       9.0000E-03  9.0000E-03  9.0000E-03  2.7000E-03  2.7000E-03  2.7000E-03  2.7000E-03  2.7000E-03  2.7000E-03  9.0000E-03
       2.7000E-02  2.7000E-02  9.0000E-03  9.0000E-03  2.7000E-03  2.7000E-03   0.000       0.000       0.000       0.000    
        0.000    
  55    0.000       0.000       0.000       0.000       0.000       0.000       0.000       0.000       0.000       0.000    
        0.000       0.000       0.000       0.000       0.000       0.000       0.000       0.000      4.5000E-04  4.5000E-04
       4.5000E-04  9.0000E-04  9.0000E-04  9.0000E-04  9.0000E-04  9.0000E-04  9.0000E-04  9.0000E-04  9.0000E-04  2.7000E-03
       2.7000E-03  2.7000E-03  9.0000E-03  9.0000E-03  9.0000E-03  2.7000E-02  2.7000E-02  2.7000E-02  2.7000E-03  9.0000E-04
       9.0000E-04  4.5000E-04  4.5000E-04  4.5000E-04  4.5000E-04  4.5000E-04  9.0000E-04  9.0000E-03  9.0000E-03  9.0000E-03
       4.5000E-04  4.5000E-04  4.5000E-04  4.5000E-04  4.5000E-04  4.5000E-04  4.5000E-04  9.0000E-04  9.0000E-04  2.7000E-03
       9.0000E-03  9.0000E-03  9.0000E-03  2.7000E-03  2.7000E-03  2.7000E-03  2.7000E-03  2.7000E-03  2.7000E-03  9.0000E-03
       2.7000E-02  2.7000E-02  9.0000E-03  9.0000E-03  2.7000E-03  2.7000E-03   0.000       0.000       0.000       0.000    
        0.000    
  56    0.000       0.000       0.000       0.000       0.000       0.000       0.000       0.000       0.000       0.000    
        0.000       0.000       0.000       0.000       0.000       0.000       0.000       0.000       0.000       0.000    
        0.000      9.0000E-04  9.0000E-04  9.0000E-04  9.0000E-04  9.0000E-04  9.0000E-04  9.0000E-04  9.0000E-04  2.7000E-03
       2.7000E-03  2.7000E-03  9.0000E-03  9.0000E-03  9.0000E-03  2.7000E-02  2.7000E-02  2.7000E-02  2.7000E-03  9.0000E-04
       9.0000E-04  4.5000E-04  4.5000E-04  4.5000E-04  4.5000E-04  4.5000E-04  9.0000E-04  9.0000E-03  9.0000E-03  9.0000E-03
       2.7000E-03  9.0000E-04  4.5000E-04  4.5000E-04  4.5000E-04  4.5000E-04  9.0000E-04  9.0000E-04  9.0000E-04  2.7000E-03
       9.0000E-03  9.0000E-03  9.0000E-03  2.7000E-03  2.7000E-03  2.7000E-03  2.7000E-03  2.7000E-03  2.7000E-03  9.0000E-03
       2.7000E-02  9.0000E-03  9.0000E-03  9.0000E-03  2.7000E-03  2.7000E-03   0.000       0.000       0.000       0.000    
        0.000    
  57    0.000       0.000       0.000       0.000       0.000       0.000       0.000       0.000       0.000       0.000    
        0.000       0.000       0.000       0.000       0.000       0.000       0.000       0.000       0.000       0.000    
        0.000       0.000      9.0000E-04  9.0000E-04  9.0000E-04  9.0000E-04  9.0000E-04  9.0000E-04  9.0000E-04  9.0000E-04
       2.7000E-03  2.7000E-03  9.0000E-03  9.0000E-03  9.0000E-03  2.7000E-02  2.7000E-02  9.0000E-03  2.7000E-03  9.0000E-04
       9.0000E-04  4.5000E-04  4.5000E-04  4.5000E-04  4.5000E-04  4.5000E-04  9.0000E-04  9.0000E-04  9.0000E-04  9.0000E-03
       2.7000E-03  9.0000E-04  4.5000E-04  4.5000E-04  4.5000E-04  4.5000E-04  9.0000E-04  9.0000E-04  9.0000E-04  2.7000E-03
       9.0000E-03  9.0000E-03  2.7000E-03  2.7000E-03  9.0000E-04  9.0000E-04  2.7000E-03  2.7000E-03  2.7000E-03  9.0000E-03
       9.0000E-03  2.7000E-03  9.0000E-03  9.0000E-03  2.7000E-03  2.7000E-03   0.000       0.000       0.000       0.000    
        0.000    
  58    0.000       0.000       0.000       0.000       0.000       0.000       0.000       0.000       0.000       0.000    
        0.000       0.000       0.000       0.000       0.000       0.000       0.000       0.000       0.000       0.000    
        0.000       0.000       0.000      9.0000E-04  9.0000E-04  9.0000E-04  9.0000E-04  9.0000E-04  9.0000E-04  9.0000E-04
       2.7000E-03  2.7000E-03  9.0000E-03  9.0000E-03  9.0000E-03  2.7000E-02  2.7000E-02  9.0000E-03  2.7000E-03  9.0000E-04
       9.0000E-04  4.5000E-04  4.5000E-04  4.5000E-04  4.5000E-04  4.5000E-04  4.5000E-04  9.0000E-04  9.0000E-04  9.0000E-03
       2.7000E-03  9.0000E-04  4.5000E-04  4.5000E-04  4.5000E-04  4.5000E-04  9.0000E-04  9.0000E-04  9.0000E-04  2.7000E-03
       9.0000E-03  2.7000E-03  2.7000E-03  2.7000E-03  9.0000E-04  9.0000E-04  9.0000E-04  2.7000E-03  2.7000E-03  9.0000E-03
       9.0000E-03  2.7000E-03  9.0000E-03  9.0000E-03  2.7000E-03  2.7000E-03   0.000       0.000       0.000       0.000    
        0.000    
  59    0.000       0.000       0.000       0.000       0.000       0.000       0.000       0.000       0.000       0.000    
        0.000       0.000       0.000       0.000       0.000       0.000       0.000       0.000       0.000       0.000    
        0.000       0.000       0.000       0.000       0.000       0.000       0.000       0.000       0.000      9.0000E-04
       9.0000E-04  2.7000E-03  9.0000E-03  9.0000E-03  9.0000E-03  2.7000E-02  2.7000E-02  9.0000E-03  2.7000E-03  9.0000E-04
       9.0000E-04  4.5000E-04  4.5000E-04  4.5000E-04  4.5000E-04  4.5000E-04  4.5000E-04  9.0000E-04  9.0000E-04  9.0000E-03
       9.0000E-03  9.0000E-04  9.0000E-04  9.0000E-04  9.0000E-04  9.0000E-04  9.0000E-04  9.0000E-04  9.0000E-04  2.7000E-03
       2.7000E-03  2.7000E-03  2.7000E-03  2.7000E-03  9.0000E-04  9.0000E-04  9.0000E-04  2.7000E-03  2.7000E-03  9.0000E-03
       9.0000E-03  2.7000E-03  9.0000E-03  9.0000E-03  2.7000E-03  2.7000E-03   0.000       0.000       0.000       0.000    
        0.000    
  60    0.000       0.000       0.000       0.000       0.000       0.000       0.000       0.000       0.000       0.000    
        0.000       0.000       0.000       0.000       0.000       0.000       0.000       0.000       0.000       0.000    
        0.000       0.000       0.000       0.000       0.000       0.000       0.000       0.000       0.000       0.000    
        0.000      2.7000E-03  9.0000E-03  9.0000E-03  9.0000E-03  2.7000E-02  2.7000E-02  9.0000E-03  9.0000E-04  9.0000E-04
       9.0000E-04  4.5000E-04  4.5000E-04  4.5000E-04  4.5000E-04  4.5000E-04  4.5000E-04  9.0000E-04  9.0000E-04  9.0000E-04
       9.0000E-03  9.0000E-04  9.0000E-04  9.0000E-04  9.0000E-04  9.0000E-04  9.0000E-04  9.0000E-04  2.7000E-03  2.7000E-03
       2.7000E-03  9.0000E-04  9.0000E-04  9.0000E-04  9.0000E-04  9.0000E-04  9.0000E-04  2.7000E-03  9.0000E-03  9.0000E-03
       9.0000E-03  2.7000E-03  2.7000E-03  2.7000E-03  2.7000E-03  2.7000E-03   0.000       0.000       0.000       0.000    
        0.000    
  61    0.000       0.000       0.000       0.000       0.000       0.000       0.000       0.000       0.000       0.000    
        0.000       0.000       0.000       0.000       0.000       0.000       0.000       0.000       0.000       0.000    
        0.000       0.000       0.000       0.000       0.000       0.000       0.000       0.000       0.000       0.000    
        0.000       0.000      2.7000E-03  2.7000E-03  2.7000E-03  2.7000E-03  2.7000E-03  2.7000E-03  9.0000E-04  9.0000E-04
       9.0000E-04  4.5000E-04  4.5000E-04  4.5000E-04  4.5000E-04  4.5000E-04  4.5000E-04  4.5000E-04  9.0000E-04  9.0000E-04
       9.0000E-03  9.0000E-03  9.0000E-04  9.0000E-04  9.0000E-04  9.0000E-04  9.0000E-04  9.0000E-04  9.0000E-04  9.0000E-04
       9.0000E-04  9.0000E-04  9.0000E-04  9.0000E-04  9.0000E-04  9.0000E-04  9.0000E-04  2.7000E-03  9.0000E-03  2.7000E-03
       9.0000E-03  2.7000E-03  2.7000E-03  2.7000E-03  2.7000E-03  2.7000E-03   0.000       0.000       0.000       0.000    
        0.000    
  62    0.000       0.000       0.000       0.000       0.000       0.000       0.000       0.000       0.000       0.000    
        0.000       0.000       0.000       0.000       0.000       0.000       0.000       0.000       0.000       0.000    
        0.000       0.000       0.000       0.000       0.000       0.000       0.000       0.000       0.000       0.000    
        0.000       0.000       0.000      2.7000E-03  2.7000E-03   0.000       0.000       0.000       0.000       0.000    
        0.000       0.000       0.000       0.000       0.000       0.000      4.5000E-04  4.5000E-04  9.0000E-04  9.0000E-04
       2.7000E-03  9.0000E-03  9.0000E-04  9.0000E-04  9.0000E-04  9.0000E-04  9.0000E-04  9.0000E-04  9.0000E-04  9.0000E-04
       9.0000E-04  9.0000E-04  9.0000E-04  9.0000E-04  9.0000E-04  9.0000E-04  2.7000E-03  9.0000E-03  9.0000E-03  2.7000E-03
       2.7000E-03  2.7000E-03  2.7000E-03  2.7000E-03  2.7000E-03  2.7000E-03   0.000       0.000       0.000       0.000    
        0.000    
  63    0.000       0.000       0.000       0.000       0.000       0.000       0.000       0.000       0.000       0.000    
        0.000       0.000       0.000       0.000       0.000       0.000       0.000       0.000       0.000       0.000    
        0.000       0.000       0.000       0.000       0.000       0.000       0.000       0.000       0.000       0.000    
        0.000       0.000       0.000       0.000       0.000       0.000       0.000       0.000       0.000       0.000    
        0.000       0.000       0.000       0.000       0.000       0.000      4.5000E-04  4.5000E-04  4.5000E-04  9.0000E-04
       2.7000E-03  2.7000E-03  9.0000E-04  9.0000E-04  9.0000E-04  9.0000E-04  9.0000E-04  9.0000E-04  9.0000E-04  9.0000E-04
       9.0000E-04  9.0000E-04  9.0000E-04  9.0000E-04  9.0000E-04  9.0000E-04  2.7000E-03  9.0000E-03  9.0000E-03  2.7000E-03
       2.7000E-03  2.7000E-03  2.7000E-03  2.7000E-03  2.7000E-03  2.7000E-03   0.000       0.000       0.000       0.000    
        0.000    
  64    0.000       0.000       0.000       0.000       0.000       0.000       0.000       0.000       0.000       0.000    
        0.000       0.000       0.000       0.000       0.000       0.000       0.000       0.000       0.000       0.000    
        0.000       0.000       0.000       0.000       0.000       0.000       0.000       0.000       0.000       0.000    
        0.000       0.000       0.000       0.000       0.000       0.000       0.000       0.000       0.000       0.000    
        0.000       0.000       0.000       0.000       0.000       0.000      4.5000E-04  4.5000E-04  4.5000E-04  9.0000E-04
       2.7000E-03  2.7000E-03  9.0000E-04  9.0000E-04  9.0000E-04  9.0000E-04  9.0000E-04  9.0000E-04  9.0000E-04  9.0000E-04
       9.0000E-04  9.0000E-04  9.0000E-04  9.0000E-04  9.0000E-04  9.0000E-04  2.7000E-03  9.0000E-03  2.7000E-03  2.7000E-03
       2.7000E-03  2.7000E-03  2.7000E-03  2.7000E-03  2.7000E-03  2.7000E-03   0.000       0.000       0.000       0.000    
        0.000    
  65    0.000       0.000       0.000       0.000       0.000       0.000       0.000       0.000       0.000       0.000    
        0.000       0.000       0.000       0.000       0.000       0.000       0.000       0.000       0.000       0.000    
        0.000       0.000       0.000       0.000       0.000       0.000       0.000       0.000       0.000       0.000    
        0.000       0.000       0.000       0.000       0.000       0.000       0.000       0.000       0.000       0.000    
        0.000       0.000       0.000       0.000       0.000       0.000       0.000       0.000      4.5000E-04  4.5000E-04
       2.7000E-03  2.7000E-03  9.0000E-04  9.0000E-04  9.0000E-04  9.0000E-04  9.0000E-04  9.0000E-04  9.0000E-04  9.0000E-04
       9.0000E-04  9.0000E-04  9.0000E-04  9.0000E-04  9.0000E-04  2.7000E-03  2.7000E-03  2.7000E-03  2.7000E-03  2.7000E-03
       2.7000E-03  2.7000E-03  2.7000E-03  2.7000E-03  2.7000E-03  2.7000E-03   0.000       0.000       0.000       0.000    
        0.000    
  66    0.000       0.000       0.000       0.000       0.000       0.000       0.000       0.000       0.000       0.000    
        0.000       0.000       0.000       0.000       0.000       0.000       0.000       0.000       0.000       0.000    
        0.000       0.000       0.000       0.000       0.000       0.000       0.000       0.000       0.000       0.000    
        0.000       0.000       0.000       0.000       0.000       0.000       0.000       0.000       0.000       0.000    
        0.000       0.000       0.000       0.000       0.000       0.000       0.000       0.000       0.000      4.5000E-04
       4.5000E-04  9.0000E-04  9.0000E-04  9.0000E-04  9.0000E-04  9.0000E-04  9.0000E-04  9.0000E-04  9.0000E-04  9.0000E-04
       9.0000E-04  9.0000E-04  9.0000E-04  9.0000E-04  9.0000E-04  2.7000E-03  2.7000E-03  2.7000E-03  2.7000E-03  2.7000E-03
       2.7000E-03  2.7000E-03  2.7000E-03  2.7000E-03  2.7000E-03  9.0000E-04   0.000       0.000       0.000       0.000    
        0.000    
  67    0.000       0.000       0.000       0.000       0.000       0.000       0.000       0.000       0.000       0.000    
        0.000       0.000       0.000       0.000       0.000       0.000       0.000       0.000       0.000       0.000    
        0.000       0.000       0.000       0.000       0.000       0.000       0.000       0.000       0.000       0.000    
        0.000       0.000       0.000       0.000       0.000       0.000       0.000       0.000       0.000       0.000    
        0.000       0.000       0.000       0.000       0.000       0.000       0.000       0.000       0.000      4.5000E-04
       4.5000E-04  9.0000E-04  9.0000E-04  9.0000E-04  4.5000E-04  4.5000E-04  4.5000E-04  4.5000E-04  4.5000E-04  4.5000E-04
       4.5000E-04  9.0000E-04  9.0000E-04  9.0000E-04  9.0000E-04  2.7000E-03  2.7000E-03  2.7000E-03  2.7000E-03  2.7000E-03
       2.7000E-03  2.7000E-03  2.7000E-03  2.7000E-03  9.0000E-04  9.0000E-04   0.000       0.000       0.000       0.000    
        0.000    
  68    0.000       0.000       0.000       0.000       0.000       0.000       0.000       0.000       0.000       0.000    
        0.000       0.000       0.000       0.000       0.000       0.000       0.000       0.000       0.000       0.000    
        0.000       0.000       0.000       0.000       0.000       0.000       0.000       0.000       0.000       0.000    
        0.000       0.000       0.000       0.000       0.000       0.000       0.000       0.000       0.000       0.000    
        0.000       0.000       0.000       0.000       0.000       0.000       0.000       0.000       0.000       0.000    
       4.5000E-04  9.0000E-04  9.0000E-04  9.0000E-04  4.5000E-04  4.5000E-04  4.5000E-04  4.5000E-04  4.5000E-04  4.5000E-04
       4.5000E-04  9.0000E-04  9.0000E-04  9.0000E-04  9.0000E-04  2.7000E-03  2.7000E-03  2.7000E-03  2.7000E-03  2.7000E-03
       2.7000E-03  2.7000E-03  2.7000E-03  2.7000E-03  9.0000E-04  9.0000E-04   0.000       0.000       0.000       0.000    
        0.000    
  69    0.000       0.000       0.000       0.000       0.000       0.000       0.000       0.000       0.000       0.000    
        0.000       0.000       0.000       0.000       0.000       0.000       0.000       0.000       0.000       0.000    
        0.000       0.000       0.000       0.000       0.000       0.000       0.000       0.000       0.000       0.000    
        0.000       0.000       0.000       0.000       0.000       0.000       0.000       0.000       0.000       0.000    
        0.000       0.000       0.000       0.000       0.000       0.000       0.000       0.000       0.000       0.000    
        0.000       0.000       0.000       0.000       0.000       0.000      4.5000E-04  4.5000E-04  4.5000E-04  4.5000E-04
       4.5000E-04  9.0000E-04  9.0000E-04  9.0000E-04  2.7000E-03  2.7000E-03  2.7000E-03  2.7000E-03  2.7000E-03  2.7000E-03
       2.7000E-03  2.7000E-03  2.7000E-03  2.7000E-03  9.0000E-04  9.0000E-04   0.000       0.000       0.000       0.000    
        0.000    
  70    0.000       0.000       0.000       0.000       0.000       0.000       0.000       0.000       0.000       0.000    
        0.000       0.000       0.000       0.000       0.000       0.000       0.000       0.000       0.000       0.000    
        0.000       0.000       0.000       0.000       0.000       0.000       0.000       0.000       0.000       0.000    
        0.000       0.000       0.000       0.000       0.000       0.000       0.000       0.000       0.000       0.000    
        0.000       0.000       0.000       0.000       0.000       0.000       0.000       0.000       0.000       0.000    
        0.000       0.000       0.000       0.000       0.000       0.000      4.5000E-04  4.5000E-04  4.5000E-04  4.5000E-04
       4.5000E-04  2.7000E-03  2.7000E-03  2.7000E-03  2.7000E-03  2.7000E-03  2.7000E-03  2.7000E-03  2.7000E-03  2.7000E-03
       2.7000E-03  2.7000E-03  2.7000E-03  2.7000E-03  9.0000E-04   0.000       0.000       0.000       0.000       0.000    
        0.000    
  71    0.000       0.000       0.000       0.000       0.000       0.000       0.000       0.000       0.000       0.000    
        0.000       0.000       0.000       0.000       0.000       0.000       0.000       0.000       0.000       0.000    
        0.000       0.000       0.000       0.000       0.000       0.000       0.000       0.000       0.000       0.000    
        0.000       0.000       0.000       0.000       0.000       0.000       0.000       0.000       0.000       0.000    
        0.000       0.000       0.000       0.000       0.000       0.000       0.000       0.000       0.000       0.000    
        0.000       0.000       0.000       0.000       0.000       0.000       0.000      4.5000E-04  4.5000E-04  9.0000E-04
       2.7000E-03  2.7000E-03  2.7000E-03  2.7000E-03   0.000       0.000       0.000       0.000       0.000       0.000    
        0.000       0.000       0.000       0.000      9.0000E-04   0.000       0.000       0.000       0.000       0.000    
        0.000    
  72    0.000       0.000       0.000       0.000       0.000       0.000       0.000       0.000       0.000       0.000    
        0.000       0.000       0.000       0.000       0.000       0.000       0.000       0.000       0.000       0.000    
        0.000       0.000       0.000       0.000       0.000       0.000       0.000       0.000       0.000       0.000    
        0.000       0.000       0.000       0.000       0.000       0.000       0.000       0.000       0.000       0.000    
        0.000       0.000       0.000       0.000       0.000       0.000       0.000       0.000       0.000       0.000    
        0.000       0.000       0.000       0.000       0.000       0.000       0.000       0.000      4.5000E-04  9.0000E-04
       2.7000E-03  2.7000E-03   0.000       0.000       0.000       0.000       0.000       0.000       0.000       0.000    
        0.000       0.000       0.000       0.000       0.000       0.000       0.000       0.000       0.000       0.000    
        0.000    
  73    0.000       0.000       0.000       0.000       0.000       0.000       0.000       0.000       0.000       0.000    
        0.000       0.000       0.000       0.000       0.000       0.000       0.000       0.000       0.000       0.000    
        0.000       0.000       0.000       0.000       0.000       0.000       0.000       0.000       0.000       0.000    
        0.000       0.000       0.000       0.000       0.000       0.000       0.000       0.000       0.000       0.000    
        0.000       0.000       0.000       0.000       0.000       0.000       0.000       0.000       0.000       0.000    
        0.000       0.000       0.000       0.000       0.000       0.000       0.000       0.000      4.5000E-04  9.0000E-04
       2.7000E-03   0.000       0.000       0.000       0.000       0.000       0.000       0.000       0.000       0.000    
        0.000       0.000       0.000       0.000       0.000       0.000       0.000       0.000       0.000       0.000    
        0.000    



                VERTICAL HYD. COND. FOR LAYER   2
 READING ON UNIT   12 WITH FORMAT: (FREE)              

            1           2           3           4           5           6           7           8           9          10
           11          12          13          14          15          16          17          18          19          20
           21          22          23          24          25          26          27          28          29          30
           31          32          33          34          35          36          37          38          39          40
           41          42          43          44          45          46          47          48          49          50
           51          52          53          54          55          56          57          58          59          60
           61          62          63          64          65          66          67          68          69          70
           71          72          73          74          75          76          77          78          79          80
           81
 ........................................................................................................................
   1    0.000       0.000       0.000       0.000       0.000       0.000       0.000       0.000       0.000       0.000    
        0.000       0.000       0.000       0.000       0.000       0.000       0.000       0.000       0.000       0.000    
        0.000       0.000       0.000       0.000       0.000       0.000       0.000       0.000       0.000       0.000    
        0.000       0.000       0.000       0.000       0.000       0.000       0.000       0.000       0.000       0.000    
        0.000       0.000       0.000       0.000       0.000       0.000       0.000       0.000       0.000       0.000    
        0.000       0.000       0.000       0.000       0.000       0.000       0.000       0.000       0.000       0.000    
        0.000       0.000       0.000      4.5000E-04  4.5000E-04   0.000       0.000       0.000       0.000       0.000    
        0.000       0.000       0.000       0.000       0.000       0.000       0.000       0.000       0.000       0.000    
        0.000    
   2    0.000       0.000       0.000       0.000       0.000       0.000       0.000       0.000       0.000       0.000    
        0.000       0.000       0.000       0.000       0.000       0.000       0.000       0.000       0.000       0.000    
        0.000       0.000       0.000       0.000       0.000       0.000       0.000       0.000       0.000       0.000    
        0.000       0.000       0.000       0.000       0.000       0.000       0.000       0.000       0.000       0.000    
        0.000       0.000       0.000       0.000       0.000       0.000       0.000       0.000       0.000       0.000    
        0.000       0.000       0.000       0.000       0.000       0.000       0.000       0.000       0.000       0.000    
        0.000       0.000      4.5000E-04  2.7000E-03  2.7000E-03   0.000       0.000       0.000       0.000       0.000    
        0.000       0.000       0.000       0.000       0.000       0.000       0.000       0.000       0.000       0.000    
        0.000    
   3    0.000       0.000       0.000       0.000       0.000       0.000       0.000       0.000       0.000       0.000    
        0.000       0.000       0.000       0.000       0.000       0.000       0.000       0.000       0.000       0.000    
        0.000       0.000       0.000       0.000       0.000       0.000       0.000       0.000       0.000       0.000    
        0.000       0.000       0.000       0.000       0.000       0.000       0.000       0.000       0.000       0.000    
        0.000       0.000       0.000       0.000       0.000       0.000       0.000       0.000       0.000       0.000    
        0.000       0.000       0.000       0.000       0.000       0.000       0.000       0.000       0.000       0.000    
        0.000       0.000      2.7000E-03  2.7000E-03  9.0000E-03   0.000       0.000       0.000       0.000       0.000    
        0.000       0.000       0.000       0.000       0.000       0.000       0.000       0.000       0.000       0.000    
        0.000    
   4    0.000       0.000       0.000       0.000       0.000       0.000       0.000       0.000       0.000       0.000    
        0.000       0.000       0.000       0.000       0.000       0.000       0.000       0.000       0.000       0.000    
        0.000       0.000       0.000       0.000       0.000       0.000       0.000       0.000       0.000       0.000    
        0.000       0.000       0.000       0.000       0.000       0.000       0.000       0.000       0.000       0.000    
        0.000       0.000       0.000       0.000       0.000       0.000       0.000       0.000       0.000       0.000    
        0.000       0.000       0.000       0.000       0.000       0.000       0.000       0.000       0.000       0.000    
        0.000      4.5000E-04  2.7000E-03  2.7000E-03  9.0000E-03   0.000       0.000       0.000       0.000       0.000    
        0.000       0.000       0.000       0.000       0.000       0.000       0.000       0.000       0.000       0.000    
        0.000    
   5    0.000       0.000       0.000       0.000       0.000       0.000       0.000       0.000       0.000       0.000    
        0.000       0.000       0.000       0.000       0.000       0.000       0.000       0.000       0.000       0.000    
        0.000       0.000       0.000       0.000       0.000       0.000       0.000       0.000       0.000       0.000    
        0.000       0.000       0.000       0.000       0.000       0.000       0.000       0.000       0.000       0.000    
        0.000       0.000       0.000       0.000       0.000       0.000       0.000       0.000       0.000       0.000    
        0.000       0.000       0.000       0.000       0.000       0.000       0.000       0.000       0.000       0.000    
        0.000      2.7000E-03  2.7000E-03  2.7000E-03  9.0000E-03  2.7000E-03   0.000       0.000       0.000       0.000    
        0.000       0.000       0.000       0.000       0.000       0.000       0.000       0.000       0.000       0.000    
        0.000    
   6    0.000       0.000       0.000       0.000       0.000       0.000       0.000       0.000       0.000       0.000    
        0.000       0.000       0.000       0.000       0.000       0.000       0.000       0.000       0.000       0.000    
        0.000       0.000       0.000       0.000       0.000       0.000       0.000       0.000       0.000       0.000    
        0.000       0.000       0.000       0.000       0.000       0.000       0.000       0.000       0.000       0.000    
        0.000       0.000       0.000       0.000       0.000       0.000       0.000       0.000       0.000       0.000    
        0.000       0.000       0.000       0.000       0.000       0.000       0.000       0.000       0.000       0.000    
        0.000      2.7000E-03  2.7000E-03  2.7000E-03  9.0000E-03  9.0000E-03  2.7000E-03   0.000       0.000       0.000    
        0.000       0.000       0.000       0.000       0.000       0.000       0.000       0.000       0.000       0.000    
        0.000    
   7    0.000       0.000       0.000       0.000       0.000       0.000       0.000       0.000       0.000       0.000    
        0.000       0.000       0.000       0.000       0.000       0.000       0.000       0.000       0.000       0.000    
        0.000       0.000       0.000       0.000       0.000       0.000       0.000       0.000       0.000       0.000    
        0.000       0.000       0.000       0.000       0.000       0.000       0.000       0.000       0.000       0.000    
        0.000       0.000       0.000       0.000       0.000       0.000       0.000       0.000       0.000       0.000    
        0.000       0.000       0.000       0.000       0.000       0.000       0.000       0.000       0.000       0.000    
       4.5000E-04  2.7000E-03  2.7000E-03  2.7000E-03  9.0000E-03  9.0000E-03  9.0000E-03  2.7000E-03   0.000       0.000    
        0.000       0.000       0.000       0.000       0.000       0.000       0.000       0.000       0.000       0.000    
        0.000    
   8    0.000       0.000       0.000       0.000       0.000       0.000       0.000       0.000       0.000       0.000    
        0.000       0.000       0.000       0.000       0.000       0.000       0.000       0.000       0.000       0.000    
        0.000       0.000       0.000       0.000       0.000       0.000       0.000       0.000       0.000       0.000    
        0.000       0.000       0.000       0.000       0.000       0.000       0.000       0.000       0.000       0.000    
        0.000       0.000       0.000       0.000       0.000       0.000       0.000       0.000       0.000       0.000    
        0.000       0.000       0.000       0.000       0.000       0.000       0.000       0.000       0.000       0.000    
       9.0000E-04  2.7000E-03  2.7000E-03  2.7000E-03  9.0000E-03  9.0000E-03  9.0000E-03  2.7000E-03  2.7000E-03  2.7000E-03
       2.7000E-03   0.000       0.000       0.000       0.000       0.000       0.000       0.000       0.000       0.000    
        0.000    
   9    0.000       0.000       0.000       0.000       0.000       0.000       0.000       0.000       0.000       0.000    
        0.000       0.000       0.000       0.000       0.000       0.000       0.000       0.000       0.000       0.000    
        0.000       0.000       0.000       0.000       0.000       0.000       0.000       0.000       0.000       0.000    
        0.000       0.000       0.000       0.000       0.000       0.000       0.000       0.000       0.000       0.000    
        0.000       0.000       0.000       0.000       0.000       0.000       0.000       0.000      9.0000E-04  9.0000E-04
        0.000       0.000       0.000       0.000       0.000       0.000       0.000       0.000      2.7000E-03  2.7000E-03
       2.7000E-03  2.7000E-03  2.7000E-03  2.7000E-03  9.0000E-03  9.0000E-03  9.0000E-03  2.7000E-03  2.7000E-03  2.7000E-03
       2.7000E-03  2.7000E-03  2.7000E-03  2.7000E-03  2.7000E-03   0.000       0.000       0.000       0.000       0.000    
        0.000    
  10    0.000       0.000       0.000       0.000       0.000       0.000       0.000       0.000       0.000       0.000    
        0.000       0.000       0.000       0.000       0.000       0.000       0.000       0.000       0.000       0.000    
        0.000       0.000       0.000       0.000       0.000       0.000       0.000       0.000       0.000       0.000    
        0.000       0.000       0.000       0.000       0.000       0.000       0.000       0.000       0.000       0.000    
        0.000       0.000       0.000       0.000       0.000       0.000       0.000      9.0000E-04  9.0000E-04  9.0000E-04
       9.0000E-04  9.0000E-04  9.0000E-04   0.000       0.000       0.000      9.0000E-04  2.7000E-03  2.7000E-03  2.7000E-03
       2.7000E-03  2.7000E-03  2.7000E-03  2.7000E-03  9.0000E-03  9.0000E-03  9.0000E-03  2.7000E-03  2.7000E-03  2.7000E-03
       2.7000E-03  2.7000E-03  2.7000E-03  2.7000E-03  2.7000E-03  2.7000E-03   0.000       0.000       0.000       0.000    
        0.000    
  11    0.000       0.000       0.000       0.000       0.000       0.000       0.000       0.000       0.000       0.000    
        0.000       0.000       0.000       0.000       0.000       0.000       0.000       0.000       0.000       0.000    
        0.000       0.000       0.000       0.000       0.000       0.000       0.000       0.000       0.000       0.000    
        0.000       0.000       0.000       0.000       0.000       0.000       0.000       0.000       0.000       0.000    
        0.000       0.000       0.000       0.000       0.000       0.000      9.0000E-04  9.0000E-04  9.0000E-04  9.0000E-04
       9.0000E-04  9.0000E-04  9.0000E-04  9.0000E-04  9.0000E-04  9.0000E-04  9.0000E-04  2.7000E-03  2.7000E-03  2.7000E-03
       2.7000E-03  2.7000E-03  2.7000E-03  2.7000E-03  9.0000E-03  9.0000E-03  9.0000E-03  2.7000E-03  2.7000E-03  2.7000E-03
       2.7000E-03  2.7000E-03  2.7000E-03  2.7000E-03  2.7000E-03  2.7000E-03   0.000       0.000       0.000       0.000    
        0.000    
  12    0.000       0.000       0.000       0.000       0.000       0.000       0.000       0.000       0.000       0.000    
        0.000       0.000       0.000       0.000       0.000       0.000       0.000       0.000       0.000       0.000    
        0.000       0.000       0.000       0.000       0.000       0.000       0.000       0.000       0.000       0.000    
        0.000       0.000       0.000       0.000       0.000       0.000       0.000       0.000       0.000       0.000    
        0.000       0.000       0.000       0.000       0.000       0.000      9.0000E-04  9.0000E-04  9.0000E-04  2.7000E-03
       2.7000E-03  2.7000E-03  2.7000E-03  2.7000E-03  2.7000E-03  2.7000E-03  2.7000E-03  2.7000E-03  2.7000E-03  2.7000E-03
       2.7000E-03  2.7000E-03  2.7000E-03  2.7000E-03  9.0000E-03  9.0000E-03  9.0000E-03  2.7000E-03  2.7000E-03  2.7000E-03
       2.7000E-03  2.7000E-03  2.7000E-03  2.7000E-03  2.7000E-03  2.7000E-03  2.7000E-03   0.000       0.000       0.000    
        0.000    
  13    0.000       0.000       0.000       0.000       0.000       0.000       0.000       0.000       0.000       0.000    
        0.000       0.000       0.000       0.000       0.000       0.000       0.000       0.000       0.000       0.000    
        0.000       0.000       0.000       0.000       0.000       0.000       0.000       0.000       0.000       0.000    
        0.000       0.000       0.000       0.000       0.000       0.000       0.000       0.000       0.000       0.000    
        0.000       0.000       0.000       0.000      9.0000E-04  9.0000E-04  9.0000E-04  9.0000E-04  9.0000E-04  2.7000E-03
       2.7000E-03  2.7000E-03  2.7000E-03  2.7000E-03  2.7000E-03  2.7000E-03  2.7000E-03  2.7000E-03  2.7000E-03  2.7000E-03
       2.7000E-03  2.7000E-03  2.7000E-03  2.7000E-03  9.0000E-03  9.0000E-03  9.0000E-03  2.7000E-03  2.7000E-03  2.7000E-03
       2.7000E-03  2.7000E-03  2.7000E-03  2.7000E-03  2.7000E-03  2.7000E-03  2.7000E-03  2.7000E-03   0.000       0.000    
        0.000    
  14    0.000       0.000       0.000       0.000       0.000       0.000       0.000       0.000       0.000       0.000    
        0.000       0.000       0.000       0.000       0.000       0.000       0.000       0.000       0.000       0.000    
        0.000       0.000       0.000       0.000       0.000       0.000       0.000       0.000       0.000       0.000    
        0.000       0.000       0.000       0.000       0.000       0.000       0.000       0.000       0.000       0.000    
        0.000      9.0000E-04  9.0000E-04  9.0000E-04  9.0000E-04  9.0000E-04  9.0000E-04  9.0000E-04  9.0000E-04  2.7000E-03
       2.7000E-03  2.7000E-03  2.7000E-03  2.7000E-03  2.7000E-03  2.7000E-03  2.7000E-03  2.7000E-03  2.7000E-03  2.7000E-03
       2.7000E-03  2.7000E-03  2.7000E-03  2.7000E-03  9.0000E-03  9.0000E-03  9.0000E-03  2.7000E-03  2.7000E-03  2.7000E-03
       2.7000E-03  2.7000E-03  2.7000E-03  2.7000E-03  2.7000E-03  2.7000E-03  2.7000E-03  2.7000E-03  2.7000E-03   0.000    
        0.000    
  15    0.000       0.000       0.000       0.000       0.000       0.000       0.000       0.000       0.000       0.000    
        0.000       0.000       0.000       0.000       0.000       0.000       0.000       0.000       0.000       0.000    
        0.000       0.000       0.000       0.000       0.000       0.000       0.000       0.000       0.000       0.000    
        0.000       0.000       0.000       0.000       0.000       0.000       0.000       0.000       0.000       0.000    
       4.5000E-04  4.5000E-04  9.0000E-04  9.0000E-04  9.0000E-04  9.0000E-04  9.0000E-04  9.0000E-04  9.0000E-04  9.0000E-04
       9.0000E-04  2.7000E-03  2.7000E-03  2.7000E-03  2.7000E-03  2.7000E-03  2.7000E-03  2.7000E-03  2.7000E-03  2.7000E-03
       2.7000E-03  2.7000E-03  2.7000E-03  2.7000E-03  9.0000E-03  9.0000E-03  9.0000E-03  9.0000E-03  2.7000E-03  2.7000E-03
       2.7000E-03  2.7000E-03  2.7000E-03  2.7000E-03  2.7000E-03  2.7000E-03  2.7000E-03  2.7000E-03  2.7000E-03  2.7000E-03
        0.000    
  16    0.000       0.000       0.000       0.000       0.000       0.000       0.000       0.000       0.000       0.000    
        0.000       0.000       0.000       0.000       0.000       0.000       0.000       0.000       0.000       0.000    
        0.000       0.000       0.000       0.000       0.000       0.000       0.000       0.000       0.000       0.000    
        0.000       0.000       0.000       0.000       0.000       0.000       0.000       0.000       0.000      4.5000E-04
       4.5000E-04  4.5000E-04  9.0000E-04  9.0000E-04  9.0000E-04  9.0000E-04  9.0000E-04  9.0000E-04  9.0000E-04  9.0000E-04
       9.0000E-04  9.0000E-04  2.7000E-03  2.7000E-03  2.7000E-03  2.7000E-03  2.7000E-03  2.7000E-03  2.7000E-03  2.7000E-03
       2.7000E-03  2.7000E-03  2.7000E-03  2.7000E-03  9.0000E-03  9.0000E-03  9.0000E-03  9.0000E-03  9.0000E-03  2.7000E-03
       2.7000E-03  2.7000E-03  2.7000E-03  2.7000E-03  2.7000E-03  2.7000E-03  2.7000E-03  2.7000E-03  2.7000E-03  2.7000E-03
        0.000    
  17    0.000       0.000       0.000       0.000       0.000       0.000       0.000       0.000       0.000       0.000    
        0.000       0.000       0.000       0.000       0.000       0.000       0.000       0.000       0.000       0.000    
        0.000       0.000       0.000       0.000       0.000       0.000       0.000       0.000       0.000       0.000    
        0.000       0.000       0.000       0.000       0.000       0.000       0.000       0.000       0.000      4.5000E-04
       4.5000E-04  4.5000E-04  4.5000E-04  9.0000E-04  9.0000E-04  9.0000E-04  9.0000E-04  9.0000E-04  9.0000E-04  9.0000E-04
       9.0000E-04  9.0000E-04  2.7000E-03  2.7000E-03  2.7000E-03  2.7000E-03  2.7000E-03  2.7000E-03  2.7000E-03  2.7000E-03
       2.7000E-03  2.7000E-03  2.7000E-03  2.7000E-03  9.0000E-03  9.0000E-03  9.0000E-03  9.0000E-03  9.0000E-03  9.0000E-03
       9.0000E-03  9.0000E-03  9.0000E-03  9.0000E-03  9.0000E-03  9.0000E-03  2.7000E-03  2.7000E-03  2.7000E-03  2.7000E-03
        0.000    
  18    0.000       0.000       0.000       0.000       0.000       0.000       0.000       0.000       0.000       0.000    
        0.000       0.000       0.000       0.000       0.000       0.000       0.000       0.000       0.000       0.000    
        0.000       0.000       0.000       0.000       0.000       0.000       0.000       0.000       0.000       0.000    
        0.000       0.000       0.000       0.000       0.000       0.000       0.000       0.000       0.000      4.5000E-04
       4.5000E-04  4.5000E-04  4.5000E-04  9.0000E-04  9.0000E-04  9.0000E-04  9.0000E-04  9.0000E-04  9.0000E-04  9.0000E-04
       9.0000E-04  9.0000E-04  2.7000E-03  2.7000E-03  2.7000E-03  2.7000E-03  2.7000E-03  2.7000E-03  2.7000E-03  2.7000E-03
       2.7000E-03  2.7000E-03  2.7000E-03  2.7000E-03  9.0000E-03  9.0000E-03  9.0000E-03  9.0000E-03  9.0000E-03  9.0000E-03
       9.0000E-03  9.0000E-03  9.0000E-03  9.0000E-03  9.0000E-03  9.0000E-03  9.0000E-03  2.7000E-03  2.7000E-03  2.7000E-03
        0.000    
  19    0.000       0.000       0.000       0.000       0.000       0.000       0.000       0.000       0.000       0.000    
        0.000       0.000       0.000       0.000       0.000       0.000       0.000       0.000       0.000       0.000    
        0.000       0.000       0.000       0.000       0.000       0.000       0.000       0.000       0.000       0.000    
        0.000       0.000       0.000       0.000      4.5000E-04  4.5000E-04  4.5000E-04  4.5000E-04  4.5000E-04  4.5000E-04
       4.5000E-04  4.5000E-04  9.0000E-04  9.0000E-04  9.0000E-04  9.0000E-04  9.0000E-04  9.0000E-04  9.0000E-04  9.0000E-04
       9.0000E-04  9.0000E-04  2.7000E-03  2.7000E-03  2.7000E-03  2.7000E-03  2.7000E-03  2.7000E-03  2.7000E-03  2.7000E-03
       2.7000E-03  2.7000E-03  2.7000E-03  2.7000E-03  9.0000E-03  9.0000E-03  9.0000E-03  9.0000E-03  9.0000E-03  9.0000E-03
       9.0000E-03  9.0000E-03  9.0000E-03  9.0000E-03  9.0000E-03  9.0000E-03  9.0000E-03  2.7000E-03  2.7000E-03  2.7000E-03
       2.7000E-03
  20    0.000       0.000       0.000       0.000       0.000       0.000       0.000       0.000       0.000       0.000    
        0.000       0.000       0.000       0.000       0.000       0.000       0.000       0.000       0.000       0.000    
        0.000       0.000       0.000       0.000       0.000       0.000       0.000       0.000       0.000       0.000    
        0.000       0.000      4.5000E-04  4.5000E-04  4.5000E-04  4.5000E-04  4.5000E-04  4.5000E-04  4.5000E-04  4.5000E-04
       4.5000E-04  9.0000E-04  9.0000E-04  9.0000E-04  9.0000E-04  9.0000E-04  9.0000E-04  9.0000E-04  9.0000E-04  9.0000E-04
       9.0000E-04  9.0000E-04  2.7000E-03  2.7000E-03  2.7000E-03  2.7000E-03  2.7000E-03  2.7000E-03  2.7000E-03  2.7000E-03
       2.7000E-03  2.7000E-03  2.7000E-03  2.7000E-03  9.0000E-03  9.0000E-03  9.0000E-03  9.0000E-03  9.0000E-03  9.0000E-03
       9.0000E-03  9.0000E-03  9.0000E-03  9.0000E-03  9.0000E-03  9.0000E-03  9.0000E-03  2.7000E-03  2.7000E-03  2.7000E-03
       2.7000E-03
  21    0.000       0.000       0.000       0.000       0.000       0.000       0.000       0.000       0.000       0.000    
        0.000       0.000       0.000       0.000       0.000       0.000       0.000       0.000       0.000       0.000    
        0.000       0.000       0.000       0.000       0.000       0.000       0.000       0.000       0.000      4.5000E-04
       4.5000E-04  4.5000E-04  4.5000E-04  4.5000E-04  4.5000E-04  4.5000E-04  4.5000E-04  4.5000E-04  4.5000E-04  9.0000E-04
       9.0000E-04  9.0000E-04  9.0000E-04  9.0000E-04  9.0000E-04  9.0000E-04  9.0000E-04  9.0000E-04  9.0000E-04  9.0000E-04
       9.0000E-04  9.0000E-04  2.7000E-03  2.7000E-03  9.0000E-03  2.7000E-03  2.7000E-03  2.7000E-03  2.7000E-03  2.7000E-03
       2.7000E-03  2.7000E-03  2.7000E-03  2.7000E-03  2.7000E-03  9.0000E-03  9.0000E-03  9.0000E-03  9.0000E-03  9.0000E-03
       9.0000E-03  9.0000E-03  9.0000E-03  9.0000E-03  9.0000E-03  9.0000E-03  9.0000E-03  2.7000E-03  2.7000E-03  2.7000E-03
       2.7000E-03
  22    0.000       0.000       0.000       0.000       0.000       0.000       0.000       0.000       0.000       0.000    
        0.000       0.000       0.000       0.000       0.000       0.000       0.000       0.000       0.000       0.000    
        0.000       0.000       0.000       0.000       0.000       0.000      4.5000E-04  4.5000E-04  4.5000E-04  4.5000E-04
       4.5000E-04  4.5000E-04  4.5000E-04  4.5000E-04  4.5000E-04  4.5000E-04  4.5000E-04  4.5000E-04  9.0000E-04  9.0000E-04
       9.0000E-04  9.0000E-04  9.0000E-04  9.0000E-04  9.0000E-04  9.0000E-04  9.0000E-04  9.0000E-04  9.0000E-04  9.0000E-04
       9.0000E-04  2.7000E-03  2.7000E-03  2.7000E-03  9.0000E-03  2.7000E-03  2.7000E-03  2.7000E-03  2.7000E-03  2.7000E-03
       2.7000E-03  2.7000E-03  2.7000E-03  2.7000E-03  2.7000E-03  2.7000E-03  9.0000E-03  9.0000E-03  9.0000E-03  9.0000E-03
       9.0000E-03  9.0000E-03  9.0000E-03  9.0000E-03  9.0000E-03  9.0000E-03  9.0000E-03  2.7000E-03  2.7000E-03  2.7000E-03
       2.7000E-03
  23    0.000       0.000       0.000       0.000       0.000       0.000       0.000       0.000       0.000       0.000    
        0.000       0.000       0.000       0.000       0.000       0.000       0.000       0.000       0.000       0.000    
        0.000       0.000       0.000       0.000      4.5000E-04  4.5000E-04  4.5000E-04  4.5000E-04  4.5000E-04  4.5000E-04
       4.5000E-04  4.5000E-04  4.5000E-04  4.5000E-04  4.5000E-04  9.0000E-04  9.0000E-04  9.0000E-04  9.0000E-04  9.0000E-04
       9.0000E-04  9.0000E-04  9.0000E-04  9.0000E-04  9.0000E-04  9.0000E-04  9.0000E-04  9.0000E-04  2.7000E-03  2.7000E-03
       2.7000E-03  2.7000E-03  2.7000E-03  2.7000E-03  9.0000E-03  2.7000E-03  2.7000E-03  2.7000E-03  2.7000E-03  2.7000E-03
       2.7000E-03  2.7000E-03  2.7000E-03  2.7000E-03  2.7000E-03  2.7000E-03  2.7000E-03  2.7000E-03  9.0000E-03  9.0000E-03
       9.0000E-03  9.0000E-03  9.0000E-03  9.0000E-03  9.0000E-03  9.0000E-03  9.0000E-03  2.7000E-03  2.7000E-03  2.7000E-03
       2.7000E-03
  24    0.000       0.000       0.000       0.000       0.000       0.000       0.000       0.000       0.000       0.000    
        0.000       0.000       0.000       0.000       0.000       0.000       0.000       0.000       0.000       0.000    
        0.000       0.000      4.5000E-04  4.5000E-04  4.5000E-04  4.5000E-04  4.5000E-04  4.5000E-04  4.5000E-04  9.0000E-04
       9.0000E-04  9.0000E-04  9.0000E-04  9.0000E-04  9.0000E-04  9.0000E-04  9.0000E-04  9.0000E-04  9.0000E-04  9.0000E-04
       9.0000E-04  9.0000E-04  9.0000E-04  9.0000E-04  2.7000E-03  2.7000E-03  2.7000E-03  2.7000E-03  2.7000E-03  2.7000E-03
       2.7000E-03  2.7000E-03  2.7000E-03  2.7000E-03  9.0000E-03  2.7000E-03  2.7000E-03  2.7000E-03  2.7000E-03  2.7000E-03
       2.7000E-03  2.7000E-03  2.7000E-03  2.7000E-03  2.7000E-03  2.7000E-03  2.7000E-03  2.7000E-03  2.7000E-03  9.0000E-03
       9.0000E-03  9.0000E-03  9.0000E-03  9.0000E-03  9.0000E-03  9.0000E-03  2.7000E-03  2.7000E-03  2.7000E-03  2.7000E-03
       2.7000E-03
  25    0.000       0.000       0.000       0.000       0.000       0.000       0.000       0.000       0.000       0.000    
        0.000       0.000       0.000       0.000       0.000       0.000       0.000       0.000       0.000       0.000    
       4.5000E-04  4.5000E-04  4.5000E-04  4.5000E-04  4.5000E-04  4.5000E-04  4.5000E-04  9.0000E-04  9.0000E-04  9.0000E-04
       9.0000E-04  9.0000E-04  9.0000E-04  9.0000E-04  9.0000E-04  9.0000E-04  9.0000E-04  9.0000E-04  9.0000E-04  9.0000E-04
       9.0000E-04  9.0000E-04  9.0000E-04  2.7000E-03  2.7000E-03  2.7000E-03  2.7000E-03  2.7000E-03  2.7000E-03  2.7000E-03
       2.7000E-03  2.7000E-03  2.7000E-03  2.7000E-03  9.0000E-03  9.0000E-03  2.7000E-03  2.7000E-03  2.7000E-03  2.7000E-03
       2.7000E-03  2.7000E-03  2.7000E-03  2.7000E-03  2.7000E-03  2.7000E-03  2.7000E-03  2.7000E-03  2.7000E-03  9.0000E-03
       9.0000E-03  9.0000E-03  9.0000E-03  9.0000E-03  9.0000E-03  2.7000E-03  2.7000E-03  2.7000E-03  2.7000E-03  2.7000E-03
        0.000    
  26    0.000       0.000       0.000       0.000       0.000       0.000       0.000       0.000       0.000       0.000    
        0.000       0.000       0.000       0.000       0.000       0.000       0.000       0.000      4.5000E-04  4.5000E-04
       4.5000E-04  4.5000E-04  4.5000E-04  4.5000E-04  4.5000E-04  4.5000E-04  4.5000E-04  9.0000E-04  9.0000E-04  9.0000E-04
       9.0000E-04  9.0000E-04  9.0000E-04  9.0000E-04  9.0000E-04  9.0000E-04  9.0000E-04  9.0000E-04  9.0000E-04  9.0000E-04
       9.0000E-04  9.0000E-04  2.7000E-03  2.7000E-03  2.7000E-03  2.7000E-03  2.7000E-03  2.7000E-03  2.7000E-03  2.7000E-03
       2.7000E-03  2.7000E-03  2.7000E-03  2.7000E-03  9.0000E-03  9.0000E-03  2.7000E-03  2.7000E-03  2.7000E-03  2.7000E-03
       2.7000E-03  2.7000E-03  2.7000E-03  2.7000E-03  2.7000E-03  2.7000E-03  2.7000E-03  2.7000E-03  2.7000E-03  2.7000E-03
       9.0000E-03  9.0000E-03  9.0000E-03  9.0000E-03  9.0000E-03  2.7000E-03  2.7000E-03  2.7000E-03  2.7000E-03   0.000    
        0.000    
  27    0.000       0.000       0.000       0.000       0.000       0.000       0.000       0.000       0.000       0.000    
        0.000       0.000       0.000       0.000       0.000       0.000       0.000      4.5000E-04  4.5000E-04  4.5000E-04
       4.5000E-04  4.5000E-04  9.0000E-04  9.0000E-04  9.0000E-04  9.0000E-04  9.0000E-04  9.0000E-04  9.0000E-04  9.0000E-04
       9.0000E-04  9.0000E-04  9.0000E-04  9.0000E-04  9.0000E-04  9.0000E-04  9.0000E-04  9.0000E-04  9.0000E-04  9.0000E-04
       9.0000E-04  2.7000E-03  2.7000E-03  2.7000E-03  2.7000E-03  2.7000E-03  2.7000E-03  2.7000E-03  2.7000E-03  2.7000E-03
       2.7000E-03  2.7000E-03  2.7000E-03  2.7000E-03  2.7000E-03  9.0000E-03  2.7000E-03  2.7000E-03  2.7000E-03  2.7000E-03
       2.7000E-03  2.7000E-03  2.7000E-03  2.7000E-03  2.7000E-03  2.7000E-03  2.7000E-03  2.7000E-03  2.7000E-03  2.7000E-03
       2.7000E-03  9.0000E-03  9.0000E-03  9.0000E-03  9.0000E-03  2.7000E-03   0.000       0.000       0.000       0.000    
        0.000    
  28    0.000       0.000       0.000       0.000       0.000       0.000       0.000       0.000       0.000       0.000    
        0.000       0.000       0.000       0.000       0.000       0.000      4.5000E-04  4.5000E-04  4.5000E-04  4.5000E-04
       4.5000E-04  9.0000E-04  9.0000E-04  9.0000E-04  9.0000E-04  9.0000E-04  9.0000E-04  9.0000E-04  9.0000E-04  9.0000E-03
       9.0000E-03  9.0000E-03  9.0000E-03  9.0000E-04  9.0000E-04  9.0000E-04  9.0000E-04  9.0000E-04  9.0000E-04  2.7000E-03
       2.7000E-03  2.7000E-03  2.7000E-03  2.7000E-03  2.7000E-03  2.7000E-03  2.7000E-03  2.7000E-03  2.7000E-03  2.7000E-03
       2.7000E-03  2.7000E-03  2.7000E-03  2.7000E-03  2.7000E-03  9.0000E-03  9.0000E-03  2.7000E-03  2.7000E-03  2.7000E-03
       2.7000E-03  2.7000E-03  2.7000E-03  2.7000E-03  2.7000E-03  2.7000E-03  2.7000E-03  2.7000E-03  2.7000E-03  2.7000E-03
       2.7000E-03  9.0000E-03  9.0000E-03  9.0000E-03  9.0000E-03  2.7000E-03   0.000       0.000       0.000       0.000    
        0.000    
  29    0.000       0.000       0.000       0.000       0.000       0.000       0.000       0.000       0.000       0.000    
        0.000      4.5000E-04  4.5000E-04  9.0000E-04  9.0000E-04  9.0000E-04  9.0000E-04  9.0000E-04  9.0000E-04  9.0000E-04
       9.0000E-04  9.0000E-04  9.0000E-04  9.0000E-04  9.0000E-04  9.0000E-04  9.0000E-04  9.0000E-04  9.0000E-04  9.0000E-03
       9.0000E-03  9.0000E-03  9.0000E-03  9.0000E-03  9.0000E-03  9.0000E-04  9.0000E-04  9.0000E-04  9.0000E-04  2.7000E-03
       2.7000E-03  9.0000E-03  9.0000E-03  2.7000E-02  2.7000E-02  2.7000E-02  2.7000E-02  2.7000E-03  2.7000E-03  2.7000E-03
       2.7000E-03  2.7000E-03  2.7000E-03  2.7000E-03  2.7000E-03  9.0000E-03  9.0000E-03  2.7000E-03  2.7000E-03  2.7000E-03
       2.7000E-03  2.7000E-03  2.7000E-03  2.7000E-03  2.7000E-03  2.7000E-03  2.7000E-03  2.7000E-03  2.7000E-03  2.7000E-03
       2.7000E-03  9.0000E-03  9.0000E-03  9.0000E-03  9.0000E-03  2.7000E-03   0.000       0.000       0.000       0.000    
        0.000    
  30    0.000       0.000       0.000       0.000       0.000       0.000       0.000       0.000       0.000       0.000    
       4.5000E-04  4.5000E-04  9.0000E-04  9.0000E-04  9.0000E-04  9.0000E-04  9.0000E-03  9.0000E-03  9.0000E-03  9.0000E-03
       9.0000E-03  9.0000E-03  9.0000E-03  9.0000E-03  9.0000E-03  9.0000E-03  9.0000E-03  9.0000E-03  9.0000E-03  9.0000E-03
       9.0000E-03  9.0000E-03  9.0000E-03  9.0000E-03  9.0000E-03  9.0000E-03  9.0000E-03  9.0000E-03  9.0000E-03  9.0000E-03
       9.0000E-03  2.7000E-02  2.7000E-02  2.7000E-02  2.7000E-02  2.7000E-02  2.7000E-02  2.7000E-02  9.0000E-03  2.7000E-03
       2.7000E-03  2.7000E-03  2.7000E-03  2.7000E-03  2.7000E-03  9.0000E-03  9.0000E-03  2.7000E-03  2.7000E-03  2.7000E-03
       2.7000E-03  2.7000E-03  2.7000E-03  2.7000E-03  2.7000E-03  2.7000E-03  2.7000E-03  2.7000E-03  2.7000E-03  2.7000E-03
       2.7000E-03  9.0000E-03  9.0000E-03  2.7000E-02  9.0000E-03  2.7000E-03   0.000       0.000       0.000       0.000    
        0.000    
  31    0.000       0.000       0.000       0.000       0.000       0.000       0.000       0.000       0.000      4.5000E-04
       4.5000E-04  4.5000E-04  9.0000E-04  9.0000E-04  9.0000E-04  9.0000E-04  9.0000E-03  9.0000E-03  9.0000E-03  9.0000E-03
       9.0000E-03  9.0000E-03  9.0000E-03  9.0000E-03  9.0000E-03  9.0000E-03  9.0000E-03  2.7000E-02  2.7000E-02  2.7000E-02
       2.7000E-02  2.7000E-02  2.7000E-02  2.7000E-02  2.7000E-02  2.7000E-02  2.7000E-02  2.7000E-02  2.7000E-02  2.7000E-02
       2.7000E-02  2.7000E-02  2.7000E-02  2.7000E-02  2.7000E-02  2.7000E-02  2.7000E-02  2.7000E-02  9.0000E-03  2.7000E-02
       9.0000E-03  2.7000E-03  2.7000E-03  2.7000E-03  2.7000E-03  9.0000E-03  9.0000E-03  2.7000E-03  2.7000E-03  2.7000E-03
       2.7000E-03  2.7000E-03  2.7000E-03  2.7000E-03  2.7000E-03  2.7000E-03  2.7000E-03  2.7000E-03  2.7000E-03  2.7000E-03
       2.7000E-03  9.0000E-03  9.0000E-03  2.7000E-02  9.0000E-03  2.7000E-03   0.000       0.000       0.000       0.000    
        0.000    
  32    0.000       0.000       0.000       0.000       0.000       0.000       0.000       0.000      4.5000E-04  4.5000E-04
       4.5000E-04  4.5000E-04  9.0000E-04  9.0000E-04  9.0000E-04  9.0000E-04  9.0000E-04  9.0000E-04  9.0000E-04  9.0000E-04
       9.0000E-04  9.0000E-04  9.0000E-04  9.0000E-04  9.0000E-04  9.0000E-04  2.7000E-03  2.7000E-03  2.7000E-03  2.7000E-03
       2.7000E-03  2.7000E-03  9.0000E-03  9.0000E-03  2.7000E-02  2.7000E-02  2.7000E-02  2.7000E-02  2.7000E-02  2.7000E-02
       2.7000E-02  2.7000E-02  9.0000E-03  9.0000E-03  9.0000E-03  9.0000E-03  9.0000E-03  2.7000E-02  9.0000E-03  2.7000E-02
       2.7000E-02  9.0000E-03  2.7000E-03  2.7000E-03  2.7000E-03  9.0000E-03  9.0000E-03  2.7000E-03  2.7000E-03  2.7000E-03
       2.7000E-03  2.7000E-03  2.7000E-03  2.7000E-03  2.7000E-03  2.7000E-03  2.7000E-03  2.7000E-03  2.7000E-03  2.7000E-03
       2.7000E-03  9.0000E-03  9.0000E-03  2.7000E-02  9.0000E-03  2.7000E-03   0.000       0.000       0.000       0.000    
        0.000    
  33    0.000       0.000       0.000       0.000       0.000       0.000       0.000      4.5000E-04  4.5000E-04  4.5000E-04
       4.5000E-04  4.5000E-04  9.0000E-04  9.0000E-04  9.0000E-04  9.0000E-04  9.0000E-04  9.0000E-04  9.0000E-04  9.0000E-04
       9.0000E-04  9.0000E-04  9.0000E-04  9.0000E-04  9.0000E-04  2.7000E-03  2.7000E-03  2.7000E-03  2.7000E-03  2.7000E-03
       2.7000E-03  2.7000E-03  9.0000E-03  2.7000E-02  2.7000E-02  2.7000E-02  2.7000E-02  2.7000E-02  2.7000E-02  2.7000E-02
       2.7000E-02  2.7000E-03  2.7000E-03  2.7000E-03  2.7000E-03  2.7000E-03  9.0000E-03  9.0000E-03  2.7000E-02  2.7000E-02
       2.7000E-02  2.7000E-02  9.0000E-03  9.0000E-03  9.0000E-03  9.0000E-03  9.0000E-03  9.0000E-03  9.0000E-03  9.0000E-03
       2.7000E-03  2.7000E-03  2.7000E-03  2.7000E-03  2.7000E-03  2.7000E-03  2.7000E-03  2.7000E-03  2.7000E-03  2.7000E-03
       2.7000E-03  9.0000E-03  9.0000E-03  2.7000E-02  9.0000E-03  2.7000E-03   0.000       0.000       0.000       0.000    
        0.000    
  34    0.000       0.000       0.000       0.000       0.000       0.000      4.5000E-04  4.5000E-04  4.5000E-04  4.5000E-04
       4.5000E-04  9.0000E-04  9.0000E-04  9.0000E-04  9.0000E-04  9.0000E-04  9.0000E-04  9.0000E-04  9.0000E-04  9.0000E-04
       9.0000E-04  9.0000E-04  2.7000E-03  2.7000E-03  2.7000E-03  2.7000E-03  2.7000E-03  2.7000E-03  2.7000E-03  2.7000E-03
       2.7000E-03  2.7000E-03  2.7000E-02  2.7000E-02  9.0000E-03  9.0000E-03  2.7000E-02  2.7000E-02  2.7000E-02  2.7000E-02
       2.7000E-02  2.7000E-03  2.7000E-03  2.7000E-03  2.7000E-03  2.7000E-03  9.0000E-03  9.0000E-03  2.7000E-02  2.7000E-02
       2.7000E-02  2.7000E-02  2.7000E-02  2.7000E-02  2.7000E-02  2.7000E-02  2.7000E-02  2.7000E-02  2.7000E-02  2.7000E-02
       2.7000E-03  2.7000E-03  2.7000E-03  2.7000E-03  2.7000E-03  2.7000E-03  2.7000E-03  2.7000E-03  2.7000E-03  2.7000E-03
       2.7000E-03  9.0000E-03  9.0000E-03  2.7000E-02  9.0000E-03  2.7000E-03   0.000       0.000       0.000       0.000    
        0.000    
  35    0.000       0.000       0.000       0.000       0.000      4.5000E-04  4.5000E-04  4.5000E-04  4.5000E-04  4.5000E-04
       4.5000E-04  9.0000E-04  9.0000E-04  9.0000E-04  9.0000E-04  9.0000E-04  9.0000E-04  9.0000E-04  2.7000E-03  2.7000E-03
       2.7000E-03  2.7000E-03  2.7000E-03  2.7000E-03  2.7000E-03  2.7000E-02  2.7000E-02  2.7000E-03  2.7000E-03  2.7000E-03
       2.7000E-03  2.7000E-02  2.7000E-02  9.0000E-03  9.0000E-03  9.0000E-03  2.7000E-02  2.7000E-02  2.7000E-02  2.7000E-02
       2.7000E-02  2.7000E-03  2.7000E-03  2.7000E-03  2.7000E-03  2.7000E-03  9.0000E-03  2.7000E-02  2.7000E-02  2.7000E-02
       2.7000E-02  2.7000E-02  2.7000E-02  2.7000E-02  2.7000E-02  2.7000E-02  2.7000E-02  2.7000E-02  2.7000E-02  2.7000E-02
       2.7000E-03  2.7000E-03  2.7000E-03  2.7000E-03  2.7000E-03  2.7000E-03  2.7000E-03  2.7000E-03  2.7000E-03  2.7000E-03
       2.7000E-03  9.0000E-03  9.0000E-03  2.7000E-02  9.0000E-03  2.7000E-03   0.000       0.000       0.000       0.000    
        0.000    
  36    0.000       0.000       0.000       0.000       0.000      4.5000E-04  4.5000E-04  4.5000E-04  4.5000E-04  4.5000E-04
       9.0000E-04  9.0000E-04  9.0000E-04  9.0000E-04  9.0000E-03  9.0000E-03  9.0000E-03  9.0000E-03  9.0000E-03  9.0000E-03
       9.0000E-03  9.0000E-03  9.0000E-03  9.0000E-03  2.7000E-02  2.7000E-02  2.7000E-02  2.7000E-02  2.7000E-02  2.7000E-02
       2.7000E-02  2.7000E-02  9.0000E-03  9.0000E-03  9.0000E-03  9.0000E-03  2.7000E-02  2.7000E-02  2.7000E-02  2.7000E-02
       2.7000E-02  2.7000E-03  2.7000E-03  2.7000E-03  2.7000E-03  2.7000E-03  9.0000E-03  2.7000E-02  2.7000E-02  2.7000E-03
       2.7000E-03  2.7000E-02  2.7000E-02  2.7000E-02  2.7000E-02  2.7000E-02  2.7000E-02  2.7000E-02  2.7000E-02  2.7000E-02
       9.0000E-03  9.0000E-03  9.0000E-03  2.7000E-03  2.7000E-03  2.7000E-03  2.7000E-03  2.7000E-03  2.7000E-03  2.7000E-03
       2.7000E-03  9.0000E-03  9.0000E-03  9.0000E-03  9.0000E-03  2.7000E-03   0.000       0.000       0.000       0.000    
        0.000    
  37    0.000       0.000       0.000       0.000       0.000      4.5000E-04  4.5000E-04  4.5000E-04  4.5000E-04  9.0000E-04
       9.0000E-04  9.0000E-04  9.0000E-04  9.0000E-03  9.0000E-03  9.0000E-03  9.0000E-03  9.0000E-03  9.0000E-03  9.0000E-03
       9.0000E-03  9.0000E-03  2.7000E-02  2.7000E-02  2.7000E-02  9.0000E-03  9.0000E-03  9.0000E-03  9.0000E-03  9.0000E-03
       9.0000E-03  9.0000E-03  9.0000E-03  9.0000E-03  9.0000E-03  9.0000E-03  2.7000E-02  2.7000E-02  2.7000E-02  2.7000E-02
       2.7000E-03  2.7000E-03  2.7000E-03  2.7000E-03  2.7000E-03  2.7000E-03  2.7000E-02  2.7000E-02  2.7000E-03  2.7000E-03
       2.7000E-03  9.0000E-03  9.0000E-03  9.0000E-03  9.0000E-03  2.7000E-02  2.7000E-02  2.7000E-02  2.7000E-02  2.7000E-02
       2.7000E-02  9.0000E-03  9.0000E-03  9.0000E-03  2.7000E-03  2.7000E-03  9.0000E-03  9.0000E-03  2.7000E-03  2.7000E-03
       2.7000E-03  9.0000E-03  9.0000E-03  2.7000E-03  2.7000E-03  9.0000E-04   0.000       0.000       0.000       0.000    
        0.000    
  38    0.000       0.000       0.000       0.000       0.000      4.5000E-04  4.5000E-04  4.5000E-04  4.5000E-04  9.0000E-04
       9.0000E-04  9.0000E-04  9.0000E-04  9.0000E-03  9.0000E-03  9.0000E-03  2.7000E-02  2.7000E-02  2.7000E-02  2.7000E-02
       2.7000E-02  2.7000E-02  2.7000E-02  2.7000E-02  9.0000E-03  9.0000E-03  9.0000E-03  9.0000E-03  9.0000E-03  9.0000E-03
       9.0000E-03  9.0000E-03  9.0000E-03  9.0000E-03  9.0000E-03  9.0000E-03  2.7000E-02  2.7000E-02  2.7000E-02  9.0000E-03
       2.7000E-03  2.7000E-03  2.7000E-03  2.7000E-03  2.7000E-03  2.7000E-03  2.7000E-02  2.7000E-02  2.7000E-03  2.7000E-03
       2.7000E-03  2.7000E-03  9.0000E-03  9.0000E-03  9.0000E-03  9.0000E-03  9.0000E-03  2.7000E-02  2.7000E-02  2.7000E-02
       2.7000E-02  2.7000E-02  2.7000E-02  2.7000E-02  9.0000E-03  9.0000E-03  9.0000E-03  9.0000E-03  9.0000E-03  2.7000E-03
       2.7000E-03  9.0000E-03  9.0000E-03  2.7000E-03  2.7000E-03  9.0000E-04  4.5000E-04   0.000       0.000       0.000    
        0.000    
  39    0.000       0.000       0.000       0.000       0.000      4.5000E-04  4.5000E-04  4.5000E-04  9.0000E-04  9.0000E-04
       9.0000E-04  9.0000E-04  9.0000E-03  9.0000E-03  2.7000E-02  2.7000E-02  2.7000E-02  9.0000E-03  9.0000E-03  9.0000E-03
       9.0000E-03  9.0000E-03  9.0000E-03  9.0000E-03  9.0000E-03  9.0000E-03  9.0000E-03  9.0000E-03  9.0000E-03  9.0000E-03
       9.0000E-03  9.0000E-03  9.0000E-03  9.0000E-03  9.0000E-03  9.0000E-03  2.7000E-02  2.7000E-02  2.7000E-02  9.0000E-03
       2.7000E-03  2.7000E-03  2.7000E-03  2.7000E-03  2.7000E-03  2.7000E-03  2.7000E-02  2.7000E-02  2.7000E-03  2.7000E-03
       2.7000E-03  2.7000E-03  9.0000E-03  9.0000E-03  9.0000E-03  9.0000E-03  9.0000E-03  9.0000E-03  9.0000E-03  9.0000E-03
       2.7000E-02  2.7000E-02  2.7000E-02  2.7000E-02  2.7000E-02  2.7000E-02  2.7000E-02  9.0000E-03  9.0000E-03  9.0000E-03
       9.0000E-03  9.0000E-03  9.0000E-03  2.7000E-03  2.7000E-03  9.0000E-04  4.5000E-04   0.000       0.000       0.000    
        0.000    
  40    0.000       0.000       0.000       0.000      4.5000E-04  4.5000E-04  4.5000E-04  9.0000E-04  9.0000E-04  9.0000E-04
       9.0000E-04  2.7000E-02  2.7000E-02  2.7000E-02  2.7000E-02  2.7000E-02  9.0000E-03  9.0000E-03  9.0000E-03  9.0000E-03
       9.0000E-03  9.0000E-03  9.0000E-03  9.0000E-03  9.0000E-03  9.0000E-03  9.0000E-03  9.0000E-03  9.0000E-03  9.0000E-03
       9.0000E-03  9.0000E-03  9.0000E-03  9.0000E-03  9.0000E-03  9.0000E-03  2.7000E-02  2.7000E-02  2.7000E-02  9.0000E-03
       2.7000E-03  2.7000E-03  2.7000E-03  2.7000E-03  2.7000E-03  2.7000E-03  2.7000E-02  2.7000E-02  2.7000E-03  2.7000E-03
       2.7000E-03  2.7000E-03  2.7000E-03  9.0000E-04  9.0000E-04  9.0000E-04  9.0000E-04  9.0000E-04  9.0000E-04  2.7000E-03
       2.7000E-02  2.7000E-02  2.7000E-02  2.7000E-02  2.7000E-02  2.7000E-02  2.7000E-02  2.7000E-02  2.7000E-02  9.0000E-03
       9.0000E-03  9.0000E-03  9.0000E-03  2.7000E-03  2.7000E-03  9.0000E-04  4.5000E-04  4.5000E-04   0.000       0.000    
        0.000    
  41    0.000       0.000       0.000       0.000      4.5000E-04  4.5000E-04  9.0000E-04  9.0000E-04  9.0000E-04  9.0000E-04
       9.0000E-04  2.7000E-02  2.7000E-02  2.7000E-02  2.7000E-02  2.7000E-02  9.0000E-03  2.7000E-03  2.7000E-03  2.7000E-03
       2.7000E-03  2.7000E-03  2.7000E-03  2.7000E-03  2.7000E-03  2.7000E-03  2.7000E-03  2.7000E-03  2.7000E-03  2.7000E-03
       2.7000E-03  2.7000E-03  9.0000E-03  9.0000E-03  9.0000E-03  9.0000E-03  2.7000E-02  2.7000E-02  2.7000E-02  2.7000E-03
       9.0000E-04  9.0000E-04  9.0000E-04  9.0000E-04  9.0000E-04  9.0000E-04  2.7000E-02  2.7000E-02  2.7000E-03  2.7000E-03
       2.7000E-03  2.7000E-03  2.7000E-03  9.0000E-04  9.0000E-04  9.0000E-04  9.0000E-04  9.0000E-04  9.0000E-04  2.7000E-03
       2.7000E-03  2.7000E-02  2.7000E-02  2.7000E-02  9.0000E-03  9.0000E-03  2.7000E-02  2.7000E-02  2.7000E-02  2.7000E-02
       2.7000E-02  2.7000E-02  2.7000E-02  9.0000E-03  2.7000E-03  9.0000E-04  4.5000E-04  4.5000E-04  4.5000E-04   0.000    
        0.000    
  42    0.000       0.000       0.000      4.5000E-04  4.5000E-04  4.5000E-04  9.0000E-04  9.0000E-04  9.0000E-04  2.7000E-02
       2.7000E-02  2.7000E-02  2.7000E-02  9.0000E-03  9.0000E-04  9.0000E-04  9.0000E-04  9.0000E-04  9.0000E-04  2.7000E-03
       2.7000E-03  2.7000E-03  2.7000E-03  2.7000E-03  2.7000E-03  2.7000E-03  2.7000E-03  2.7000E-03  2.7000E-03  2.7000E-03
       2.7000E-03  2.7000E-03  9.0000E-03  9.0000E-03  9.0000E-03  9.0000E-03  2.7000E-02  2.7000E-02  2.7000E-02  2.7000E-03
       9.0000E-04  9.0000E-04  9.0000E-04  9.0000E-04  9.0000E-04  9.0000E-04  2.7000E-02  2.7000E-02  2.7000E-03  2.7000E-03
       2.7000E-03  2.7000E-03  2.7000E-03  9.0000E-04  9.0000E-04  9.0000E-04  9.0000E-04  9.0000E-04  9.0000E-04  2.7000E-03
       2.7000E-03  2.7000E-02  2.7000E-02  9.0000E-03  9.0000E-03  2.7000E-03  9.0000E-03  9.0000E-03  2.7000E-02  2.7000E-02
       2.7000E-02  2.7000E-02  2.7000E-02  9.0000E-03  9.0000E-03  9.0000E-03  9.0000E-03  9.0000E-04  9.0000E-04   0.000    
        0.000    
  43    0.000       0.000       0.000      4.5000E-04  4.5000E-04  9.0000E-04  9.0000E-04  9.0000E-04  9.0000E-04  2.7000E-02
       2.7000E-02  2.7000E-02  9.0000E-03  9.0000E-04  9.0000E-04  9.0000E-04  9.0000E-04  9.0000E-04  9.0000E-04  9.0000E-04
       2.7000E-03  2.7000E-03  2.7000E-03  2.7000E-03  2.7000E-03  2.7000E-03  2.7000E-03  2.7000E-03  2.7000E-03  2.7000E-03
       2.7000E-03  2.7000E-03  9.0000E-03  9.0000E-03  9.0000E-03  9.0000E-03  2.7000E-02  2.7000E-02  2.7000E-02  2.7000E-03
       9.0000E-04  9.0000E-04  9.0000E-04  9.0000E-04  9.0000E-04  9.0000E-04  2.7000E-02  9.0000E-03  2.7000E-03  2.7000E-03
       4.5000E-04  4.5000E-04  4.5000E-04  4.5000E-04  4.5000E-04  4.5000E-04  4.5000E-04  9.0000E-04  9.0000E-04  2.7000E-03
       2.7000E-03  2.7000E-02  2.7000E-02  9.0000E-03  2.7000E-03  2.7000E-03  2.7000E-03  2.7000E-03  2.7000E-03  2.7000E-03
       2.7000E-03  2.7000E-02  2.7000E-02  2.7000E-02  2.7000E-02  2.7000E-02  2.7000E-02  2.7000E-02  2.7000E-02  8.1000E-02
        0.000    
  44    0.000       0.000      4.5000E-04  4.5000E-04  9.0000E-04  9.0000E-04  9.0000E-04  9.0000E-04  9.0000E-03  9.0000E-03
       9.0000E-03  9.0000E-03  9.0000E-04  9.0000E-04  9.0000E-04  9.0000E-04  9.0000E-04  9.0000E-04  9.0000E-04  9.0000E-04
       9.0000E-04  2.7000E-03  2.7000E-03  2.7000E-03  2.7000E-03  2.7000E-03  2.7000E-03  2.7000E-03  2.7000E-03  2.7000E-03
       2.7000E-03  2.7000E-03  9.0000E-03  9.0000E-03  9.0000E-03  9.0000E-03  2.7000E-02  2.7000E-02  2.7000E-02  2.7000E-03
       9.0000E-04  9.0000E-04  9.0000E-04  9.0000E-04  9.0000E-04  9.0000E-04  2.7000E-02  9.0000E-03  2.7000E-03  2.7000E-03
       4.5000E-04  4.5000E-04  4.5000E-04  4.5000E-04  4.5000E-04  4.5000E-04  4.5000E-04  9.0000E-04  9.0000E-04  2.7000E-03
       2.7000E-03  2.7000E-02  9.0000E-03  2.7000E-03  2.7000E-03  2.7000E-03  2.7000E-03  2.7000E-03  2.7000E-03  2.7000E-03
       2.7000E-03  9.0000E-03  2.7000E-02  2.7000E-02  2.7000E-02  2.7000E-02  2.7000E-02  2.7000E-02  2.7000E-02  8.1000E-02
        0.000    
  45    0.000      4.5000E-04  4.5000E-04  9.0000E-04  9.0000E-04  9.0000E-04  9.0000E-03  9.0000E-03  9.0000E-03  9.0000E-03
       9.0000E-03  9.0000E-03  9.0000E-04  9.0000E-04  9.0000E-04  9.0000E-04  9.0000E-04  9.0000E-04  9.0000E-04  9.0000E-04
       9.0000E-04  9.0000E-04  2.7000E-03  2.7000E-03  2.7000E-03  2.7000E-03  2.7000E-03  2.7000E-03  2.7000E-03  2.7000E-03
       2.7000E-03  2.7000E-03  9.0000E-03  9.0000E-03  9.0000E-03  9.0000E-03  2.7000E-02  2.7000E-02  2.7000E-02  2.7000E-02
       9.0000E-04  9.0000E-04  9.0000E-04  9.0000E-04  9.0000E-04  9.0000E-04  2.7000E-02  9.0000E-03  2.7000E-03  2.7000E-03
       4.5000E-04  4.5000E-04  4.5000E-04  4.5000E-04  4.5000E-04  4.5000E-04  4.5000E-04  9.0000E-04  9.0000E-04  2.7000E-03
       2.7000E-03  2.7000E-02  9.0000E-03  2.7000E-03  2.7000E-03  2.7000E-03  2.7000E-03  2.7000E-03  2.7000E-03  2.7000E-03
       2.7000E-03  9.0000E-03  2.7000E-02  2.7000E-02  2.7000E-02  2.7000E-02  2.7000E-02  2.7000E-02  2.7000E-02  8.1000E-02
        0.000    
  46    0.000      4.5000E-04  9.0000E-04  9.0000E-04  9.0000E-04  9.0000E-03  9.0000E-03  9.0000E-03  9.0000E-03  9.0000E-04
       9.0000E-04  9.0000E-04  9.0000E-04  9.0000E-04  9.0000E-04  9.0000E-04  9.0000E-04  9.0000E-04  9.0000E-04  9.0000E-04
       9.0000E-04  9.0000E-04  2.7000E-03  2.7000E-03  2.7000E-03  2.7000E-03  2.7000E-03  2.7000E-03  2.7000E-03  2.7000E-03
       2.7000E-03  2.7000E-03  9.0000E-03  9.0000E-03  9.0000E-03  2.7000E-02  2.7000E-02  2.7000E-02  2.7000E-02  2.7000E-02
       9.0000E-04  9.0000E-04  9.0000E-04  9.0000E-04  9.0000E-04  9.0000E-04  2.7000E-02  2.7000E-02  9.0000E-03  2.7000E-03
       4.5000E-04  4.5000E-04  4.5000E-04  4.5000E-04  4.5000E-04  4.5000E-04  4.5000E-04  9.0000E-04  9.0000E-04  2.7000E-03
       2.7000E-03  9.0000E-03  9.0000E-03  2.7000E-03  2.7000E-03  2.7000E-03  2.7000E-03  2.7000E-03  2.7000E-03  2.7000E-03
       2.7000E-03  9.0000E-03  9.0000E-03  2.7000E-02  2.7000E-02  2.7000E-02  9.0000E-03  9.0000E-03   0.000       0.000    
        0.000    
  47   4.5000E-04  4.5000E-04  9.0000E-04  9.0000E-04  9.0000E-04  9.0000E-04  9.0000E-04  9.0000E-04  9.0000E-04  9.0000E-04
       9.0000E-04  9.0000E-04  9.0000E-04  9.0000E-04  9.0000E-04  9.0000E-04  9.0000E-04  9.0000E-04  9.0000E-04  9.0000E-04
       9.0000E-04  9.0000E-04  9.0000E-04  2.7000E-03  2.7000E-03  2.7000E-03  2.7000E-03  2.7000E-03  2.7000E-03  2.7000E-03
       2.7000E-03  2.7000E-03  9.0000E-03  9.0000E-03  9.0000E-03  2.7000E-02  2.7000E-02  2.7000E-02  2.7000E-02  2.7000E-02
       9.0000E-04  9.0000E-04  9.0000E-04  9.0000E-04  9.0000E-04  9.0000E-04  9.0000E-04  2.7000E-02  9.0000E-03  2.7000E-03
       4.5000E-04  4.5000E-04  4.5000E-04  4.5000E-04  4.5000E-04  4.5000E-04  4.5000E-04  9.0000E-04  9.0000E-04  2.7000E-03
       2.7000E-03  9.0000E-03  9.0000E-03  2.7000E-03  2.7000E-03  2.7000E-03  2.7000E-03  2.7000E-03  2.7000E-03  2.7000E-03
       2.7000E-03  9.0000E-03  9.0000E-03  2.7000E-02  2.7000E-02  9.0000E-03  9.0000E-03  9.0000E-04   0.000       0.000    
        0.000    
  48    0.000      4.5000E-04  4.5000E-04  9.0000E-04  9.0000E-04  9.0000E-04  9.0000E-04  9.0000E-04  9.0000E-04  9.0000E-04
       9.0000E-04  9.0000E-04  9.0000E-04  9.0000E-04  9.0000E-04  9.0000E-04  9.0000E-04  9.0000E-04  9.0000E-04  9.0000E-04
       9.0000E-04  9.0000E-04  9.0000E-04  2.7000E-03  2.7000E-03  2.7000E-03  2.7000E-03  2.7000E-03  2.7000E-03  2.7000E-03
       2.7000E-03  2.7000E-03  9.0000E-03  9.0000E-03  9.0000E-03  2.7000E-02  2.7000E-02  2.7000E-02  2.7000E-02  2.7000E-03
       9.0000E-04  9.0000E-04  9.0000E-04  9.0000E-04  9.0000E-04  9.0000E-04  9.0000E-04  2.7000E-02  2.7000E-02  9.0000E-03
       4.5000E-04  4.5000E-04  4.5000E-04  4.5000E-04  4.5000E-04  4.5000E-04  4.5000E-04  9.0000E-04  9.0000E-04  2.7000E-03
       2.7000E-03  9.0000E-03  9.0000E-03  2.7000E-03  2.7000E-03  2.7000E-03  2.7000E-03  2.7000E-03  2.7000E-03  2.7000E-03
       2.7000E-03  9.0000E-03  2.7000E-02  2.7000E-02  9.0000E-03  2.7000E-03  9.0000E-04   0.000       0.000       0.000    
        0.000    
  49    0.000       0.000      4.5000E-04  4.5000E-04  4.5000E-04  4.5000E-04  4.5000E-04  4.5000E-04  4.5000E-04  4.5000E-04
       4.5000E-04  4.5000E-04  4.5000E-04  4.5000E-04  4.5000E-04  4.5000E-04  4.5000E-04  9.0000E-04  9.0000E-04  9.0000E-04
       9.0000E-04  9.0000E-04  9.0000E-04  9.0000E-04  9.0000E-04  2.7000E-03  2.7000E-03  2.7000E-03  2.7000E-03  2.7000E-03
       2.7000E-03  2.7000E-03  9.0000E-03  9.0000E-03  9.0000E-03  2.7000E-02  2.7000E-02  2.7000E-02  2.7000E-02  2.7000E-03
       9.0000E-04  9.0000E-04  9.0000E-04  9.0000E-04  9.0000E-04  9.0000E-04  9.0000E-04  2.7000E-02  2.7000E-02  9.0000E-03
       4.5000E-04  4.5000E-04  4.5000E-04  4.5000E-04  4.5000E-04  4.5000E-04  4.5000E-04  9.0000E-04  9.0000E-04  2.7000E-03
       2.7000E-03  9.0000E-03  9.0000E-03  2.7000E-03  2.7000E-03  2.7000E-03  2.7000E-03  2.7000E-03  2.7000E-03  2.7000E-03
       9.0000E-03  9.0000E-03  2.7000E-02  9.0000E-03  2.7000E-03  2.7000E-03  9.0000E-04   0.000       0.000       0.000    
        0.000    
  50    0.000       0.000       0.000      4.5000E-04  4.5000E-04  4.5000E-04  4.5000E-04  4.5000E-04  4.5000E-04  4.5000E-04
       4.5000E-04  4.5000E-04  4.5000E-04  4.5000E-04  4.5000E-04  4.5000E-04  4.5000E-04  9.0000E-04  9.0000E-04  9.0000E-04
       9.0000E-04  9.0000E-04  9.0000E-04  9.0000E-04  9.0000E-04  9.0000E-04  2.7000E-03  2.7000E-03  2.7000E-03  2.7000E-03
       2.7000E-03  2.7000E-03  9.0000E-03  9.0000E-03  9.0000E-03  2.7000E-02  2.7000E-02  2.7000E-02  2.7000E-02  2.7000E-03
       9.0000E-04  9.0000E-04  9.0000E-04  9.0000E-04  9.0000E-04  9.0000E-04  9.0000E-04  2.7000E-02  2.7000E-02  9.0000E-03
       4.5000E-04  4.5000E-04  4.5000E-04  4.5000E-04  4.5000E-04  4.5000E-04  4.5000E-04  9.0000E-04  9.0000E-04  2.7000E-03
       2.7000E-03  9.0000E-03  9.0000E-03  2.7000E-03  2.7000E-03  2.7000E-03  2.7000E-03  2.7000E-03  2.7000E-03  2.7000E-03
       9.0000E-03  2.7000E-02  2.7000E-02  9.0000E-03  2.7000E-03  2.7000E-03  9.0000E-04   0.000       0.000       0.000    
        0.000    
  51    0.000       0.000       0.000       0.000       0.000       0.000       0.000      4.5000E-04  4.5000E-04  4.5000E-04
       4.5000E-04  4.5000E-04  4.5000E-04   0.000      4.5000E-04  4.5000E-04  4.5000E-04  4.5000E-04  9.0000E-04  9.0000E-04
       9.0000E-04  9.0000E-04  9.0000E-04  9.0000E-04  9.0000E-04  9.0000E-04  9.0000E-04  2.7000E-03  2.7000E-03  2.7000E-03
       2.7000E-03  2.7000E-03  9.0000E-03  9.0000E-03  9.0000E-03  2.7000E-02  2.7000E-02  2.7000E-02  2.7000E-02  2.7000E-03
       9.0000E-04  4.5000E-04  4.5000E-04  4.5000E-04  4.5000E-04  4.5000E-04  9.0000E-04  2.7000E-02  9.0000E-03  9.0000E-03
       4.5000E-04  4.5000E-04  4.5000E-04  4.5000E-04  4.5000E-04  4.5000E-04  4.5000E-04  9.0000E-04  9.0000E-04  2.7000E-03
       2.7000E-03  9.0000E-03  9.0000E-03  2.7000E-03  2.7000E-03  2.7000E-03  2.7000E-03  2.7000E-03  2.7000E-03  2.7000E-03
       2.7000E-02  2.7000E-02  9.0000E-03  9.0000E-03  2.7000E-03  2.7000E-03   0.000       0.000       0.000       0.000    
        0.000    
  52    0.000       0.000       0.000       0.000       0.000       0.000       0.000       0.000       0.000       0.000    
        0.000       0.000       0.000       0.000       0.000      4.5000E-04  4.5000E-04  4.5000E-04  9.0000E-04  9.0000E-04
       9.0000E-04  9.0000E-04  9.0000E-04  9.0000E-04  9.0000E-04  9.0000E-04  9.0000E-04  9.0000E-04  2.7000E-03  2.7000E-03
       2.7000E-03  2.7000E-03  9.0000E-03  9.0000E-03  9.0000E-03  2.7000E-02  2.7000E-02  2.7000E-02  2.7000E-03  2.7000E-03
       9.0000E-04  4.5000E-04  4.5000E-04  4.5000E-04  4.5000E-04  4.5000E-04  9.0000E-04  9.0000E-03  9.0000E-03  9.0000E-03
       4.5000E-04  4.5000E-04  4.5000E-04  4.5000E-04  4.5000E-04  4.5000E-04  4.5000E-04  9.0000E-04  9.0000E-04  2.7000E-03
       9.0000E-03  9.0000E-03  9.0000E-03  2.7000E-03  2.7000E-03  2.7000E-03  2.7000E-03  2.7000E-03  2.7000E-03  2.7000E-03
       2.7000E-02  2.7000E-02  9.0000E-03  9.0000E-03  2.7000E-03  2.7000E-03   0.000       0.000       0.000       0.000    
        0.000    
  53    0.000       0.000       0.000       0.000       0.000       0.000       0.000       0.000       0.000       0.000    
        0.000       0.000       0.000       0.000       0.000       0.000       0.000      4.5000E-04  4.5000E-04  9.0000E-04
       9.0000E-04  9.0000E-04  9.0000E-04  9.0000E-04  9.0000E-04  9.0000E-04  9.0000E-04  9.0000E-04  2.7000E-03  2.7000E-03
       2.7000E-03  2.7000E-03  9.0000E-03  9.0000E-03  9.0000E-03  2.7000E-02  2.7000E-02  2.7000E-02  2.7000E-03  2.7000E-03
       9.0000E-04  4.5000E-04  4.5000E-04  4.5000E-04  4.5000E-04  4.5000E-04  9.0000E-04  9.0000E-03  9.0000E-03  9.0000E-03
       4.5000E-04  4.5000E-04  4.5000E-04  4.5000E-04  4.5000E-04  4.5000E-04  4.5000E-04  9.0000E-04  9.0000E-04  2.7000E-03
       9.0000E-03  9.0000E-03  9.0000E-03  2.7000E-03  2.7000E-03  2.7000E-03  2.7000E-03  2.7000E-03  2.7000E-03  2.7000E-03
       2.7000E-02  2.7000E-02  9.0000E-03  9.0000E-03  2.7000E-03  2.7000E-03   0.000       0.000       0.000       0.000    
        0.000    
  54    0.000       0.000       0.000       0.000       0.000       0.000       0.000       0.000       0.000       0.000    
        0.000       0.000       0.000       0.000       0.000       0.000       0.000      4.5000E-04  4.5000E-04  4.5000E-04
       9.0000E-04  9.0000E-04  9.0000E-04  9.0000E-04  9.0000E-04  9.0000E-04  9.0000E-04  9.0000E-04  9.0000E-04  2.7000E-03
       2.7000E-03  2.7000E-03  9.0000E-03  9.0000E-03  9.0000E-03  2.7000E-02  2.7000E-02  2.7000E-02  2.7000E-03  2.7000E-03
       9.0000E-04  4.5000E-04  4.5000E-04  4.5000E-04  4.5000E-04  4.5000E-04  9.0000E-04  9.0000E-03  9.0000E-03  9.0000E-03
       4.5000E-04  4.5000E-04  4.5000E-04  4.5000E-04  4.5000E-04  4.5000E-04  4.5000E-04  9.0000E-04  9.0000E-04  2.7000E-03
       9.0000E-03  9.0000E-03  9.0000E-03  2.7000E-03  2.7000E-03  2.7000E-03  2.7000E-03  2.7000E-03  2.7000E-03  9.0000E-03
       2.7000E-02  2.7000E-02  9.0000E-03  9.0000E-03  2.7000E-03  2.7000E-03   0.000       0.000       0.000       0.000    
        0.000    
  55    0.000       0.000       0.000       0.000       0.000       0.000       0.000       0.000       0.000       0.000    
        0.000       0.000       0.000       0.000       0.000       0.000       0.000       0.000      4.5000E-04  4.5000E-04
       4.5000E-04  9.0000E-04  9.0000E-04  9.0000E-04  9.0000E-04  9.0000E-04  9.0000E-04  9.0000E-04  9.0000E-04  2.7000E-03
       2.7000E-03  2.7000E-03  9.0000E-03  9.0000E-03  9.0000E-03  2.7000E-02  2.7000E-02  2.7000E-02  2.7000E-03  9.0000E-04
       9.0000E-04  4.5000E-04  4.5000E-04  4.5000E-04  4.5000E-04  4.5000E-04  9.0000E-04  9.0000E-03  9.0000E-03  9.0000E-03
       4.5000E-04  4.5000E-04  4.5000E-04  4.5000E-04  4.5000E-04  4.5000E-04  4.5000E-04  9.0000E-04  9.0000E-04  2.7000E-03
       9.0000E-03  9.0000E-03  9.0000E-03  2.7000E-03  2.7000E-03  2.7000E-03  2.7000E-03  2.7000E-03  2.7000E-03  9.0000E-03
       2.7000E-02  2.7000E-02  9.0000E-03  9.0000E-03  2.7000E-03  2.7000E-03   0.000       0.000       0.000       0.000    
        0.000    
  56    0.000       0.000       0.000       0.000       0.000       0.000       0.000       0.000       0.000       0.000    
        0.000       0.000       0.000       0.000       0.000       0.000       0.000       0.000       0.000       0.000    
        0.000      9.0000E-04  9.0000E-04  9.0000E-04  9.0000E-04  9.0000E-04  9.0000E-04  9.0000E-04  9.0000E-04  2.7000E-03
       2.7000E-03  2.7000E-03  9.0000E-03  9.0000E-03  9.0000E-03  2.7000E-02  2.7000E-02  2.7000E-02  2.7000E-03  9.0000E-04
       9.0000E-04  4.5000E-04  4.5000E-04  4.5000E-04  4.5000E-04  4.5000E-04  9.0000E-04  9.0000E-03  9.0000E-03  9.0000E-03
       2.7000E-03  9.0000E-04  4.5000E-04  4.5000E-04  4.5000E-04  4.5000E-04  9.0000E-04  9.0000E-04  9.0000E-04  2.7000E-03
       9.0000E-03  9.0000E-03  9.0000E-03  2.7000E-03  2.7000E-03  2.7000E-03  2.7000E-03  2.7000E-03  2.7000E-03  9.0000E-03
       2.7000E-02  9.0000E-03  9.0000E-03  9.0000E-03  2.7000E-03  2.7000E-03   0.000       0.000       0.000       0.000    
        0.000    
  57    0.000       0.000       0.000       0.000       0.000       0.000       0.000       0.000       0.000       0.000    
        0.000       0.000       0.000       0.000       0.000       0.000       0.000       0.000       0.000       0.000    
        0.000       0.000      9.0000E-04  9.0000E-04  9.0000E-04  9.0000E-04  9.0000E-04  9.0000E-04  9.0000E-04  9.0000E-04
       2.7000E-03  2.7000E-03  9.0000E-03  9.0000E-03  9.0000E-03  2.7000E-02  2.7000E-02  9.0000E-03  2.7000E-03  9.0000E-04
       9.0000E-04  4.5000E-04  4.5000E-04  4.5000E-04  4.5000E-04  4.5000E-04  9.0000E-04  9.0000E-04  9.0000E-04  9.0000E-03
       2.7000E-03  9.0000E-04  4.5000E-04  4.5000E-04  4.5000E-04  4.5000E-04  9.0000E-04  9.0000E-04  9.0000E-04  2.7000E-03
       9.0000E-03  9.0000E-03  2.7000E-03  2.7000E-03  9.0000E-04  9.0000E-04  2.7000E-03  2.7000E-03  2.7000E-03  9.0000E-03
       9.0000E-03  2.7000E-03  9.0000E-03  9.0000E-03  2.7000E-03  2.7000E-03   0.000       0.000       0.000       0.000    
        0.000    
  58    0.000       0.000       0.000       0.000       0.000       0.000       0.000       0.000       0.000       0.000    
        0.000       0.000       0.000       0.000       0.000       0.000       0.000       0.000       0.000       0.000    
        0.000       0.000       0.000      9.0000E-04  9.0000E-04  9.0000E-04  9.0000E-04  9.0000E-04  9.0000E-04  9.0000E-04
       2.7000E-03  2.7000E-03  9.0000E-03  9.0000E-03  9.0000E-03  2.7000E-02  2.7000E-02  9.0000E-03  2.7000E-03  9.0000E-04
       9.0000E-04  4.5000E-04  4.5000E-04  4.5000E-04  4.5000E-04  4.5000E-04  4.5000E-04  9.0000E-04  9.0000E-04  9.0000E-03
       2.7000E-03  9.0000E-04  4.5000E-04  4.5000E-04  4.5000E-04  4.5000E-04  9.0000E-04  9.0000E-04  9.0000E-04  2.7000E-03
       9.0000E-03  2.7000E-03  2.7000E-03  2.7000E-03  9.0000E-04  9.0000E-04  9.0000E-04  2.7000E-03  2.7000E-03  9.0000E-03
       9.0000E-03  2.7000E-03  9.0000E-03  9.0000E-03  2.7000E-03  2.7000E-03   0.000       0.000       0.000       0.000    
        0.000    
  59    0.000       0.000       0.000       0.000       0.000       0.000       0.000       0.000       0.000       0.000    
        0.000       0.000       0.000       0.000       0.000       0.000       0.000       0.000       0.000       0.000    
        0.000       0.000       0.000       0.000       0.000       0.000       0.000       0.000       0.000      9.0000E-04
       9.0000E-04  2.7000E-03  9.0000E-03  9.0000E-03  9.0000E-03  2.7000E-02  2.7000E-02  9.0000E-03  2.7000E-03  9.0000E-04
       9.0000E-04  4.5000E-04  4.5000E-04  4.5000E-04  4.5000E-04  4.5000E-04  4.5000E-04  9.0000E-04  9.0000E-04  9.0000E-03
       9.0000E-03  9.0000E-04  9.0000E-04  9.0000E-04  9.0000E-04  9.0000E-04  9.0000E-04  9.0000E-04  9.0000E-04  2.7000E-03
       2.7000E-03  2.7000E-03  2.7000E-03  2.7000E-03  9.0000E-04  9.0000E-04  9.0000E-04  2.7000E-03  2.7000E-03  9.0000E-03
       9.0000E-03  2.7000E-03  9.0000E-03  9.0000E-03  2.7000E-03  2.7000E-03   0.000       0.000       0.000       0.000    
        0.000    
  60    0.000       0.000       0.000       0.000       0.000       0.000       0.000       0.000       0.000       0.000    
        0.000       0.000       0.000       0.000       0.000       0.000       0.000       0.000       0.000       0.000    
        0.000       0.000       0.000       0.000       0.000       0.000       0.000       0.000       0.000       0.000    
        0.000      2.7000E-03  9.0000E-03  9.0000E-03  9.0000E-03  2.7000E-02  2.7000E-02  9.0000E-03  9.0000E-04  9.0000E-04
       9.0000E-04  4.5000E-04  4.5000E-04  4.5000E-04  4.5000E-04  4.5000E-04  4.5000E-04  9.0000E-04  9.0000E-04  9.0000E-04
       9.0000E-03  9.0000E-04  9.0000E-04  9.0000E-04  9.0000E-04  9.0000E-04  9.0000E-04  9.0000E-04  2.7000E-03  2.7000E-03
       2.7000E-03  9.0000E-04  9.0000E-04  9.0000E-04  9.0000E-04  9.0000E-04  9.0000E-04  2.7000E-03  9.0000E-03  9.0000E-03
       9.0000E-03  2.7000E-03  2.7000E-03  2.7000E-03  2.7000E-03  2.7000E-03   0.000       0.000       0.000       0.000    
        0.000    
  61    0.000       0.000       0.000       0.000       0.000       0.000       0.000       0.000       0.000       0.000    
        0.000       0.000       0.000       0.000       0.000       0.000       0.000       0.000       0.000       0.000    
        0.000       0.000       0.000       0.000       0.000       0.000       0.000       0.000       0.000       0.000    
        0.000       0.000      2.7000E-03  2.7000E-03  2.7000E-03  2.7000E-03  2.7000E-03  2.7000E-03  9.0000E-04  9.0000E-04
       9.0000E-04  4.5000E-04  4.5000E-04  4.5000E-04  4.5000E-04  4.5000E-04  4.5000E-04  4.5000E-04  9.0000E-04  9.0000E-04
       9.0000E-03  9.0000E-03  9.0000E-04  9.0000E-04  9.0000E-04  9.0000E-04  9.0000E-04  9.0000E-04  9.0000E-04  9.0000E-04
       9.0000E-04  9.0000E-04  9.0000E-04  9.0000E-04  9.0000E-04  9.0000E-04  9.0000E-04  2.7000E-03  9.0000E-03  2.7000E-03
       9.0000E-03  2.7000E-03  2.7000E-03  2.7000E-03  2.7000E-03  2.7000E-03   0.000       0.000       0.000       0.000    
        0.000    
  62    0.000       0.000       0.000       0.000       0.000       0.000       0.000       0.000       0.000       0.000    
        0.000       0.000       0.000       0.000       0.000       0.000       0.000       0.000       0.000       0.000    
        0.000       0.000       0.000       0.000       0.000       0.000       0.000       0.000       0.000       0.000    
        0.000       0.000       0.000      2.7000E-03  2.7000E-03   0.000       0.000       0.000       0.000       0.000    
        0.000       0.000       0.000       0.000       0.000       0.000      4.5000E-04  4.5000E-04  9.0000E-04  9.0000E-04
       2.7000E-03  9.0000E-03  9.0000E-04  9.0000E-04  9.0000E-04  9.0000E-04  9.0000E-04  9.0000E-04  9.0000E-04  9.0000E-04
       9.0000E-04  9.0000E-04  9.0000E-04  9.0000E-04  9.0000E-04  9.0000E-04  2.7000E-03  9.0000E-03  9.0000E-03  2.7000E-03
       2.7000E-03  2.7000E-03  2.7000E-03  2.7000E-03  2.7000E-03  2.7000E-03   0.000       0.000       0.000       0.000    
        0.000    
  63    0.000       0.000       0.000       0.000       0.000       0.000       0.000       0.000       0.000       0.000    
        0.000       0.000       0.000       0.000       0.000       0.000       0.000       0.000       0.000       0.000    
        0.000       0.000       0.000       0.000       0.000       0.000       0.000       0.000       0.000       0.000    
        0.000       0.000       0.000       0.000       0.000       0.000       0.000       0.000       0.000       0.000    
        0.000       0.000       0.000       0.000       0.000       0.000      4.5000E-04  4.5000E-04  4.5000E-04  9.0000E-04
       2.7000E-03  2.7000E-03  9.0000E-04  9.0000E-04  9.0000E-04  9.0000E-04  9.0000E-04  9.0000E-04  9.0000E-04  9.0000E-04
       9.0000E-04  9.0000E-04  9.0000E-04  9.0000E-04  9.0000E-04  9.0000E-04  2.7000E-03  9.0000E-03  9.0000E-03  2.7000E-03
       2.7000E-03  2.7000E-03  2.7000E-03  2.7000E-03  2.7000E-03  2.7000E-03   0.000       0.000       0.000       0.000    
        0.000    
  64    0.000       0.000       0.000       0.000       0.000       0.000       0.000       0.000       0.000       0.000    
        0.000       0.000       0.000       0.000       0.000       0.000       0.000       0.000       0.000       0.000    
        0.000       0.000       0.000       0.000       0.000       0.000       0.000       0.000       0.000       0.000    
        0.000       0.000       0.000       0.000       0.000       0.000       0.000       0.000       0.000       0.000    
        0.000       0.000       0.000       0.000       0.000       0.000      4.5000E-04  4.5000E-04  4.5000E-04  9.0000E-04
       2.7000E-03  2.7000E-03  9.0000E-04  9.0000E-04  9.0000E-04  9.0000E-04  9.0000E-04  9.0000E-04  9.0000E-04  9.0000E-04
       9.0000E-04  9.0000E-04  9.0000E-04  9.0000E-04  9.0000E-04  9.0000E-04  2.7000E-03  9.0000E-03  2.7000E-03  2.7000E-03
       2.7000E-03  2.7000E-03  2.7000E-03  2.7000E-03  2.7000E-03  2.7000E-03   0.000       0.000       0.000       0.000    
        0.000    
  65    0.000       0.000       0.000       0.000       0.000       0.000       0.000       0.000       0.000       0.000    
        0.000       0.000       0.000       0.000       0.000       0.000       0.000       0.000       0.000       0.000    
        0.000       0.000       0.000       0.000       0.000       0.000       0.000       0.000       0.000       0.000    
        0.000       0.000       0.000       0.000       0.000       0.000       0.000       0.000       0.000       0.000    
        0.000       0.000       0.000       0.000       0.000       0.000       0.000       0.000      4.5000E-04  4.5000E-04
       2.7000E-03  2.7000E-03  9.0000E-04  9.0000E-04  9.0000E-04  9.0000E-04  9.0000E-04  9.0000E-04  9.0000E-04  9.0000E-04
       9.0000E-04  9.0000E-04  9.0000E-04  9.0000E-04  9.0000E-04  2.7000E-03  2.7000E-03  2.7000E-03  2.7000E-03  2.7000E-03
       2.7000E-03  2.7000E-03  2.7000E-03  2.7000E-03  2.7000E-03  2.7000E-03   0.000       0.000       0.000       0.000    
        0.000    
  66    0.000       0.000       0.000       0.000       0.000       0.000       0.000       0.000       0.000       0.000    
        0.000       0.000       0.000       0.000       0.000       0.000       0.000       0.000       0.000       0.000    
        0.000       0.000       0.000       0.000       0.000       0.000       0.000       0.000       0.000       0.000    
        0.000       0.000       0.000       0.000       0.000       0.000       0.000       0.000       0.000       0.000    
        0.000       0.000       0.000       0.000       0.000       0.000       0.000       0.000       0.000      4.5000E-04
       4.5000E-04  9.0000E-04  9.0000E-04  9.0000E-04  9.0000E-04  9.0000E-04  9.0000E-04  9.0000E-04  9.0000E-04  9.0000E-04
       9.0000E-04  9.0000E-04  9.0000E-04  9.0000E-04  9.0000E-04  2.7000E-03  2.7000E-03  2.7000E-03  2.7000E-03  2.7000E-03
       2.7000E-03  2.7000E-03  2.7000E-03  2.7000E-03  2.7000E-03  9.0000E-04   0.000       0.000       0.000       0.000    
        0.000    
  67    0.000       0.000       0.000       0.000       0.000       0.000       0.000       0.000       0.000       0.000    
        0.000       0.000       0.000       0.000       0.000       0.000       0.000       0.000       0.000       0.000    
        0.000       0.000       0.000       0.000       0.000       0.000       0.000       0.000       0.000       0.000    
        0.000       0.000       0.000       0.000       0.000       0.000       0.000       0.000       0.000       0.000    
        0.000       0.000       0.000       0.000       0.000       0.000       0.000       0.000       0.000      4.5000E-04
       4.5000E-04  9.0000E-04  9.0000E-04  9.0000E-04  4.5000E-04  4.5000E-04  4.5000E-04  4.5000E-04  4.5000E-04  4.5000E-04
       4.5000E-04  9.0000E-04  9.0000E-04  9.0000E-04  9.0000E-04  2.7000E-03  2.7000E-03  2.7000E-03  2.7000E-03  2.7000E-03
       2.7000E-03  2.7000E-03  2.7000E-03  2.7000E-03  9.0000E-04  9.0000E-04   0.000       0.000       0.000       0.000    
        0.000    
  68    0.000       0.000       0.000       0.000       0.000       0.000       0.000       0.000       0.000       0.000    
        0.000       0.000       0.000       0.000       0.000       0.000       0.000       0.000       0.000       0.000    
        0.000       0.000       0.000       0.000       0.000       0.000       0.000       0.000       0.000       0.000    
        0.000       0.000       0.000       0.000       0.000       0.000       0.000       0.000       0.000       0.000    
        0.000       0.000       0.000       0.000       0.000       0.000       0.000       0.000       0.000       0.000    
       4.5000E-04  9.0000E-04  9.0000E-04  9.0000E-04  4.5000E-04  4.5000E-04  4.5000E-04  4.5000E-04  4.5000E-04  4.5000E-04
       4.5000E-04  9.0000E-04  9.0000E-04  9.0000E-04  9.0000E-04  2.7000E-03  2.7000E-03  2.7000E-03  2.7000E-03  2.7000E-03
       2.7000E-03  2.7000E-03  2.7000E-03  2.7000E-03  9.0000E-04  9.0000E-04   0.000       0.000       0.000       0.000    
        0.000    
  69    0.000       0.000       0.000       0.000       0.000       0.000       0.000       0.000       0.000       0.000    
        0.000       0.000       0.000       0.000       0.000       0.000       0.000       0.000       0.000       0.000    
        0.000       0.000       0.000       0.000       0.000       0.000       0.000       0.000       0.000       0.000    
        0.000       0.000       0.000       0.000       0.000       0.000       0.000       0.000       0.000       0.000    
        0.000       0.000       0.000       0.000       0.000       0.000       0.000       0.000       0.000       0.000    
        0.000       0.000       0.000       0.000       0.000       0.000      4.5000E-04  4.5000E-04  4.5000E-04  4.5000E-04
       4.5000E-04  9.0000E-04  9.0000E-04  9.0000E-04  2.7000E-03  2.7000E-03  2.7000E-03  2.7000E-03  2.7000E-03  2.7000E-03
       2.7000E-03  2.7000E-03  2.7000E-03  2.7000E-03  9.0000E-04  9.0000E-04   0.000       0.000       0.000       0.000    
        0.000    
  70    0.000       0.000       0.000       0.000       0.000       0.000       0.000       0.000       0.000       0.000    
        0.000       0.000       0.000       0.000       0.000       0.000       0.000       0.000       0.000       0.000    
        0.000       0.000       0.000       0.000       0.000       0.000       0.000       0.000       0.000       0.000    
        0.000       0.000       0.000       0.000       0.000       0.000       0.000       0.000       0.000       0.000    
        0.000       0.000       0.000       0.000       0.000       0.000       0.000       0.000       0.000       0.000    
        0.000       0.000       0.000       0.000       0.000       0.000      4.5000E-04  4.5000E-04  4.5000E-04  4.5000E-04
       4.5000E-04  2.7000E-03  2.7000E-03  2.7000E-03  2.7000E-03  2.7000E-03  2.7000E-03  2.7000E-03  2.7000E-03  2.7000E-03
       2.7000E-03  2.7000E-03  2.7000E-03  2.7000E-03  9.0000E-04   0.000       0.000       0.000       0.000       0.000    
        0.000    
  71    0.000       0.000       0.000       0.000       0.000       0.000       0.000       0.000       0.000       0.000    
        0.000       0.000       0.000       0.000       0.000       0.000       0.000       0.000       0.000       0.000    
        0.000       0.000       0.000       0.000       0.000       0.000       0.000       0.000       0.000       0.000    
        0.000       0.000       0.000       0.000       0.000       0.000       0.000       0.000       0.000       0.000    
        0.000       0.000       0.000       0.000       0.000       0.000       0.000       0.000       0.000       0.000    
        0.000       0.000       0.000       0.000       0.000       0.000       0.000      4.5000E-04  4.5000E-04  9.0000E-04
       2.7000E-03  2.7000E-03  2.7000E-03  2.7000E-03   0.000       0.000       0.000       0.000       0.000       0.000    
        0.000       0.000       0.000       0.000      9.0000E-04   0.000       0.000       0.000       0.000       0.000    
        0.000    
  72    0.000       0.000       0.000       0.000       0.000       0.000       0.000       0.000       0.000       0.000    
        0.000       0.000       0.000       0.000       0.000       0.000       0.000       0.000       0.000       0.000    
        0.000       0.000       0.000       0.000       0.000       0.000       0.000       0.000       0.000       0.000    
        0.000       0.000       0.000       0.000       0.000       0.000       0.000       0.000       0.000       0.000    
        0.000       0.000       0.000       0.000       0.000       0.000       0.000       0.000       0.000       0.000    
        0.000       0.000       0.000       0.000       0.000       0.000       0.000       0.000      4.5000E-04  9.0000E-04
       2.7000E-03  2.7000E-03   0.000       0.000       0.000       0.000       0.000       0.000       0.000       0.000    
        0.000       0.000       0.000       0.000       0.000       0.000       0.000       0.000       0.000       0.000    
        0.000    
  73    0.000       0.000       0.000       0.000       0.000       0.000       0.000       0.000       0.000       0.000    
        0.000       0.000       0.000       0.000       0.000       0.000       0.000       0.000       0.000       0.000    
        0.000       0.000       0.000       0.000       0.000       0.000       0.000       0.000       0.000       0.000    
        0.000       0.000       0.000       0.000       0.000       0.000       0.000       0.000       0.000       0.000    
        0.000       0.000       0.000       0.000       0.000       0.000       0.000       0.000       0.000       0.000    
        0.000       0.000       0.000       0.000       0.000       0.000       0.000       0.000      4.5000E-04  9.0000E-04
       2.7000E-03   0.000       0.000       0.000       0.000       0.000       0.000       0.000       0.000       0.000    
        0.000       0.000       0.000       0.000       0.000       0.000       0.000       0.000       0.000       0.000    
        0.000    

         SPECIFIC STORAGE =  2.000000E-06 FOR LAYER   2

 WEL -- WELL PACKAGE FOR NWT VERSION 1.1.4,  4/01/2018 INPUT READ FROM UNIT   18
 # WEL package for  MODFLOW-NWT, generated by Flopy.
 No named parameters

 PROCESSING WELL OPTIONS
  Option to reduce pumping during cell dewatering is activated and NWT solver 

 END PROCESSING WELL OPTIONS
 MAXIMUM OF      5 ACTIVE WELLS AT ONE TIME
 LISTS OF WELL CELLS WILL NOT BE PRINTED
 No named parameters


     0 Well parameters

 SFR7 -- STREAMFLOW ROUTING PACKAGE, VERSION 1.0.5, 2012-04-05
         INPUT READ FROM UNIT  15
 # SFR package for  MODFLOW-NWT, generated by Flopy.
 No named parameters

 PROCESSING SFR2 OPTIONS
 
  Some stream information will be read by reach. This option replaces NSTRM<0
 
Stream loss will be calculated as a factor of the streambed hydraulic conductivity. Multiplication factor is equal to     0.5000000000E+00
 
Streambed K will be set equal to KH of aquifer Multiplied by a factor equal to     0.2000000030E+00
 
Streambed K will be set equal to KV of aquifer Multiplied by a factor equal to     0.4000000060E+00

 END PROCESSING SFR2 OPTIONS
 


 NUMBER OF STREAM REACHES IS  201

 NUMBER OF STREAM SEGMENTS IS   15

 NUMBER OF STREAM PARAMETERS IS    0

 NUMBER OF STREAM SEGMENTS DEFINED USING PARAMETERS IS              0

 MAXIMUM ERROR FOR STREAM LEAKAGE RATES IS  1.00E-04

 CONSTANT FOR MANNINGS EQUATION IS  8.6400E+04





 OPTION FOR UNSATURATED FLOW BENEATH STREAMBEDS IS ACTIVE 




   STREAM NETWORK DESCRIPTION: 

   LAYER  ROW   COL SEGMENT  REACH   LENGTH     STREAMBED   STREAMBED   STREAMBED  STREAMBED    SATURATED    INITIAL    RESIDUAL  BROOKS/COREY  SAT. VERT.
                    NUMBER  NUMBER  IN CELL     TOP ELEV.     SLOPE     THICKNESS  HYD. COND.   WAT.CONT.   WAT.CONT.   WAT.CONT.    EPSILON    HYD. COND.        
   -------------------------------------------------------------------------------------------------------------------------------------------------------
     1    39    15     1       1   1.0200E+02  2.3565E+03  4.2000E-02  1.0000E+00  5.0000E+00  0.3000E+00  0.2000E+00  0.1500E+00  3.5000E+00  3.0000E-01
     1    39    16     1       2   9.0000E+01  2.3525E+03  6.4000E-02  1.0000E+00  5.0000E+00  0.3000E+00  0.2000E+00  0.1500E+00  3.5000E+00  3.0000E-01
     1    39    17     1       3   6.0000E+01  2.3455E+03  8.3000E-02  1.0000E+00  5.0000E+00  0.3000E+00  0.2000E+00  0.1500E+00  3.5000E+00  3.0000E-01
     1    38    17     1       4   3.0000E+01  2.3425E+03  8.1000E-02  1.0000E+00  5.0000E+00  0.3000E+00  0.2000E+00  0.1500E+00  3.5000E+00  3.0000E-01
     1    38    18     1       5   1.0200E+02  2.3365E+03  6.2000E-02  1.0000E+00  5.0000E+00  0.3000E+00  0.2000E+00  0.1500E+00  3.5000E+00  3.0000E-01
     1    38    19     1       6   9.0000E+01  2.3325E+03  6.5000E-02  1.0000E+00  5.0000E+00  0.3000E+00  0.2000E+00  0.1500E+00  3.5000E+00  3.0000E-01
     1    38    20     1       7   9.0000E+01  2.3245E+03  8.9000E-02  1.0000E+00  5.0000E+00  0.3000E+00  0.2000E+00  0.1500E+00  3.5000E+00  3.0000E-01
     1    38    21     1       8   9.0000E+01  2.3165E+03  9.7000E-02  1.0000E+00  5.0000E+00  0.3000E+00  0.2000E+00  0.1500E+00  3.5000E+00  3.0000E-01
     1    38    22     1       9   1.0200E+02  2.3065E+03  1.4100E-01  1.0000E+00  5.0000E+00  0.3000E+00  0.2000E+00  0.1500E+00  3.5000E+00  3.0000E-01
     1    38    23     1      10   1.0200E+02  2.2885E+03  1.8600E-01  1.0000E+00  5.0000E+00  0.3000E+00  0.2000E+00  0.1500E+00  3.5000E+00  3.0000E-01
     1    37    24     1      11   1.0200E+02  2.2685E+03  2.1700E-01  1.0000E+00  5.0000E+00  0.3000E+00  0.2000E+00  0.1500E+00  3.5000E+00  3.0000E-01
     1    37    25     1      12   7.2000E+01  2.2475E+03  2.0300E-01  1.0000E+00  5.0000E+00  0.3000E+00  0.2000E+00  0.1500E+00  3.5000E+00  3.0000E-01
     1    36    25     1      13   3.0000E+01  2.2405E+03  2.0600E-01  1.0000E+00  5.0000E+00  0.3000E+00  0.2000E+00  0.1500E+00  3.5000E+00  3.0000E-01
     1    36    26     1      14   7.2000E+01  2.2265E+03  2.0600E-01  1.0000E+00  5.0000E+00  0.3000E+00  0.2000E+00  0.1500E+00  3.5000E+00  3.0000E-01
     1    35    26     1      15   3.0000E+01  2.2195E+03  1.4400E-01  1.0000E+00  5.0000E+00  0.3000E+00  0.2000E+00  0.1500E+00  3.5000E+00  3.0000E-01
     1    35    27     1      16   9.0000E+01  2.2105E+03  1.4700E-01  1.0000E+00  5.0000E+00  0.3000E+00  0.2000E+00  0.1500E+00  3.5000E+00  3.0000E-01
     1    36    28     1      17   1.0200E+02  2.1965E+03  1.3500E-01  1.0000E+00  5.0000E+00  0.3000E+00  0.2000E+00  0.1500E+00  3.5000E+00  3.0000E-01
     1    36    29     1      18   9.0000E+01  2.1845E+03  1.2900E-01  1.0000E+00  5.0000E+00  0.3000E+00  0.2000E+00  0.1500E+00  3.5000E+00  3.0000E-01
     1    36    30     1      19   9.0000E+01  2.1725E+03  1.2400E-01  1.0000E+00  5.0000E+00  0.3000E+00  0.2000E+00  0.1500E+00  3.5000E+00  3.0000E-01
     1    36    31     1      20   1.0200E+02  2.1615E+03  1.3600E-01  1.0000E+00  5.0000E+00  0.3000E+00  0.2000E+00  0.1500E+00  3.5000E+00  3.0000E-01
     1    36    32     1      21   3.0000E+01  2.1505E+03  1.6200E-01  1.0000E+00  5.0000E+00  0.3000E+00  0.2000E+00  0.1500E+00  3.5000E+00  3.0000E-01
     1    35    32     1      22   7.2000E+01  2.1425E+03  1.4700E-01  1.0000E+00  5.0000E+00  0.3000E+00  0.2000E+00  0.1500E+00  3.5000E+00  3.0000E-01
     1    35    33     1      23   3.0000E+01  2.1355E+03  1.5700E-01  1.0000E+00  5.0000E+00  0.3000E+00  0.2000E+00  0.1500E+00  3.5000E+00  3.0000E-01
     1    34    33     1      24   7.2000E+01  2.1265E+03  1.4700E-01  1.0000E+00  5.0000E+00  0.3000E+00  0.2000E+00  0.1500E+00  3.5000E+00  3.0000E-01
     1    34    34     1      25   3.0000E+01  2.1205E+03  1.1500E-01  1.0000E+00  5.0000E+00  0.3000E+00  0.2000E+00  0.1500E+00  3.5000E+00  3.0000E-01
     1    33    34     1      26   6.0000E+01  2.1155E+03  1.1700E-01  1.0000E+00  5.0000E+00  0.3000E+00  0.2000E+00  0.1500E+00  3.5000E+00  3.0000E-01
     1    33    35     1      27   7.2000E+01  2.1075E+03  1.1100E-01  1.0000E+00  5.0000E+00  0.3000E+00  0.2000E+00  0.1500E+00  3.5000E+00  3.0000E-01
     1    32    35     1      28   3.0000E+01  2.1025E+03  1.2000E-01  1.0000E+00  5.0000E+00  0.3000E+00  0.2000E+00  0.1500E+00  3.5000E+00  3.0000E-01
     1    32    36     1      29   1.0200E+02  2.0935E+03  9.9000E-02  1.0000E+00  5.0000E+00  0.3000E+00  0.2000E+00  0.1500E+00  3.5000E+00  3.0000E-01
     1    32    37     1      30   9.0000E+01  2.0865E+03  7.3000E-02  1.0000E+00  5.0000E+00  0.3000E+00  0.2000E+00  0.1500E+00  3.5000E+00  3.0000E-01
     1    53    37     2       1   9.0000E+01  2.1475E+03  3.7000E-02  1.0000E+00  5.0000E+00  0.3000E+00  0.2000E+00  0.1500E+00  3.5000E+00  3.0000E-01
     1    52    37     2       2   7.2000E+01  2.1445E+03  3.8000E-02  1.0000E+00  5.0000E+00  0.3000E+00  0.2000E+00  0.1500E+00  3.5000E+00  3.0000E-01
     1    52    38     2       3   3.0000E+01  2.1425E+03  6.0000E-02  1.0000E+00  5.0000E+00  0.3000E+00  0.2000E+00  0.1500E+00  3.5000E+00  3.0000E-01
     1    51    38     2       4   1.0200E+02  2.1375E+03  4.8000E-02  1.0000E+00  5.0000E+00  0.3000E+00  0.2000E+00  0.1500E+00  3.5000E+00  3.0000E-01
     1    50    38     2       5   6.0000E+01  2.1355E+03  2.4000E-02  1.0000E+00  5.0000E+00  0.3000E+00  0.2000E+00  0.1500E+00  3.5000E+00  3.0000E-01
     1    50    39     2       6   3.0000E+01  2.1345E+03  2.9000E-02  1.0000E+00  5.0000E+00  0.3000E+00  0.2000E+00  0.1500E+00  3.5000E+00  3.0000E-01
     1    49    39     2       7   9.0000E+01  2.1325E+03  3.2000E-02  1.0000E+00  5.0000E+00  0.3000E+00  0.2000E+00  0.1500E+00  3.5000E+00  3.0000E-01
     1    48    39     2       8   1.0200E+02  2.1295E+03  2.8000E-02  1.0000E+00  5.0000E+00  0.3000E+00  0.2000E+00  0.1500E+00  3.5000E+00  3.0000E-01
     1    47    39     2       9   6.0000E+01  2.1275E+03  2.4000E-02  1.0000E+00  5.0000E+00  0.3000E+00  0.2000E+00  0.1500E+00  3.5000E+00  3.0000E-01
     1    47    40     2      10   3.0000E+01  2.1265E+03  2.9000E-02  1.0000E+00  5.0000E+00  0.3000E+00  0.2000E+00  0.1500E+00  3.5000E+00  3.0000E-01
     1    46    40     2      11   9.0000E+01  2.1245E+03  3.3000E-02  1.0000E+00  5.0000E+00  0.3000E+00  0.2000E+00  0.1500E+00  3.5000E+00  3.0000E-01
     1    45    40     2      12   3.0000E+01  2.1225E+03  3.8000E-02  1.0000E+00  5.0000E+00  0.3000E+00  0.2000E+00  0.1500E+00  3.5000E+00  3.0000E-01
     1    45    39     2      13   6.0000E+01  2.1205E+03  3.2000E-02  1.0000E+00  5.0000E+00  0.3000E+00  0.2000E+00  0.1500E+00  3.5000E+00  3.0000E-01
     1    44    39     2      14   1.0200E+02  2.1185E+03  3.8000E-02  1.0000E+00  5.0000E+00  0.3000E+00  0.2000E+00  0.1500E+00  3.5000E+00  3.0000E-01
     1    43    38     2      15   1.0200E+02  2.1135E+03  5.1000E-02  1.0000E+00  5.0000E+00  0.3000E+00  0.2000E+00  0.1500E+00  3.5000E+00  3.0000E-01
     1    42    38     2      16   9.0000E+01  2.1085E+03  4.7000E-02  1.0000E+00  5.0000E+00  0.3000E+00  0.2000E+00  0.1500E+00  3.5000E+00  3.0000E-01
     1    41    38     2      17   1.0200E+02  2.1045E+03  3.7000E-02  1.0000E+00  5.0000E+00  0.3000E+00  0.2000E+00  0.1500E+00  3.5000E+00  3.0000E-01
     1    40    38     2      18   3.0000E+01  2.1025E+03  6.3000E-02  1.0000E+00  5.0000E+00  0.3000E+00  0.2000E+00  0.1500E+00  3.5000E+00  3.0000E-01
     1    40    39     2      19   6.0000E+01  2.0975E+03  6.3000E-02  1.0000E+00  5.0000E+00  0.3000E+00  0.2000E+00  0.1500E+00  3.5000E+00  3.0000E-01
     1    39    39     2      20   1.0200E+02  2.0945E+03  4.9000E-02  1.0000E+00  5.0000E+00  0.3000E+00  0.2000E+00  0.1500E+00  3.5000E+00  3.0000E-01
     1    38    39     2      21   1.0200E+02  2.0885E+03  6.9000E-02  1.0000E+00  5.0000E+00  0.3000E+00  0.2000E+00  0.1500E+00  3.5000E+00  3.0000E-01
     1    37    40     2      22   1.0200E+02  2.0805E+03  7.7000E-02  1.0000E+00  5.0000E+00  0.3000E+00  0.2000E+00  0.1500E+00  3.5000E+00  3.0000E-01
     1    36    40     2      23   6.0000E+01  2.0745E+03  6.3000E-02  1.0000E+00  5.0000E+00  0.3000E+00  0.2000E+00  0.1500E+00  3.5000E+00  3.0000E-01
     1    36    41     2      24   3.0000E+01  2.0725E+03  4.5000E-02  1.0000E+00  5.0000E+00  0.3000E+00  0.2000E+00  0.1500E+00  3.5000E+00  3.0000E-01
     1    35    41     2      25   1.0200E+02  2.0695E+03  3.7000E-02  1.0000E+00  5.0000E+00  0.3000E+00  0.2000E+00  0.1500E+00  3.5000E+00  3.0000E-01
     1    34    41     2      26   9.0000E+01  2.0665E+03  4.3000E-02  1.0000E+00  5.0000E+00  0.3000E+00  0.2000E+00  0.1500E+00  3.5000E+00  3.0000E-01
     1    33    41     2      27   9.0000E+01  2.0615E+03  4.8000E-02  1.0000E+00  5.0000E+00  0.3000E+00  0.2000E+00  0.1500E+00  3.5000E+00  3.0000E-01
     1    32    41     2      28   1.0200E+02  2.0575E+03  5.4000E-02  1.0000E+00  5.0000E+00  0.3000E+00  0.2000E+00  0.1500E+00  3.5000E+00  3.0000E-01
     1    31    42     2      29   1.1400E+02  2.0495E+03  6.5000E-02  1.0000E+00  5.0000E+00  0.3000E+00  0.2000E+00  0.1500E+00  3.5000E+00  3.0000E-01
     1    31    33     3       1   9.0000E+01  2.1165E+03  6.7000E-02  1.0000E+00  5.0000E+00  0.3000E+00  0.2000E+00  0.1500E+00  3.5000E+00  3.0000E-01
     1    31    34     3       2   9.0000E+01  2.1105E+03  9.1000E-02  1.0000E+00  5.0000E+00  0.3000E+00  0.2000E+00  0.1500E+00  3.5000E+00  3.0000E-01
     1    31    35     3       3   1.0200E+02  2.0995E+03  9.1000E-02  1.0000E+00  5.0000E+00  0.3000E+00  0.2000E+00  0.1500E+00  3.5000E+00  3.0000E-01
     1    31    36     3       4   1.0200E+02  2.0925E+03  7.1000E-02  1.0000E+00  5.0000E+00  0.3000E+00  0.2000E+00  0.1500E+00  3.5000E+00  3.0000E-01
     1    31    37     3       5   9.0000E+01  2.0855E+03  7.3000E-02  1.0000E+00  5.0000E+00  0.3000E+00  0.2000E+00  0.1500E+00  3.5000E+00  3.0000E-01
     1    48    48     4       1   9.0000E+01  2.1135E+03  2.1000E-02  1.0000E+00  5.0000E+00  0.3000E+00  0.2000E+00  0.1500E+00  3.5000E+00  3.0000E-01
     1    47    48     4       2   1.0200E+02  2.1115E+03  3.1000E-02  1.0000E+00  5.0000E+00  0.3000E+00  0.2000E+00  0.1500E+00  3.5000E+00  3.0000E-01
     1    46    48     4       3   3.0000E+01  2.1095E+03  4.5000E-02  1.0000E+00  5.0000E+00  0.3000E+00  0.2000E+00  0.1500E+00  3.5000E+00  3.0000E-01
     1    46    47     4       4   6.0000E+01  2.1075E+03  3.3000E-02  1.0000E+00  5.0000E+00  0.3000E+00  0.2000E+00  0.1500E+00  3.5000E+00  3.0000E-01
     1    45    47     4       5   9.0000E+01  2.1055E+03  2.9000E-02  1.0000E+00  5.0000E+00  0.3000E+00  0.2000E+00  0.1500E+00  3.5000E+00  3.0000E-01
     1    44    47     4       6   1.0200E+02  2.1025E+03  4.2000E-02  1.0000E+00  5.0000E+00  0.3000E+00  0.2000E+00  0.1500E+00  3.5000E+00  3.0000E-01
     1    43    47     4       7   9.0000E+01  2.0975E+03  7.5000E-02  1.0000E+00  5.0000E+00  0.3000E+00  0.2000E+00  0.1500E+00  3.5000E+00  3.0000E-01
     1    42    47     4       8   9.0000E+01  2.0885E+03  1.0300E-01  1.0000E+00  5.0000E+00  0.3000E+00  0.2000E+00  0.1500E+00  3.5000E+00  3.0000E-01
     1    41    47     4       9   6.0000E+01  2.0805E+03  9.2000E-02  1.0000E+00  5.0000E+00  0.3000E+00  0.2000E+00  0.1500E+00  3.5000E+00  3.0000E-01
     1    41    48     4      10   3.0000E+01  2.0775E+03  9.5000E-02  1.0000E+00  5.0000E+00  0.3000E+00  0.2000E+00  0.1500E+00  3.5000E+00  3.0000E-01
     1    40    48     4      11   9.0000E+01  2.0705E+03  8.7000E-02  1.0000E+00  5.0000E+00  0.3000E+00  0.2000E+00  0.1500E+00  3.5000E+00  3.0000E-01
     1    39    48     4      12   9.0000E+01  2.0645E+03  8.3000E-02  1.0000E+00  5.0000E+00  0.3000E+00  0.2000E+00  0.1500E+00  3.5000E+00  3.0000E-01
     1    38    47     4      13   9.0000E+01  2.0555E+03  9.4000E-02  1.0000E+00  5.0000E+00  0.3000E+00  0.2000E+00  0.1500E+00  3.5000E+00  3.0000E-01
     1    37    47     4      14   9.0000E+01  2.0475E+03  1.0200E-01  1.0000E+00  5.0000E+00  0.3000E+00  0.2000E+00  0.1500E+00  3.5000E+00  3.0000E-01
     1    36    48     4      15   1.0200E+02  2.0365E+03  9.3000E-02  1.0000E+00  5.0000E+00  0.3000E+00  0.2000E+00  0.1500E+00  3.5000E+00  3.0000E-01
     1    35    48     4      16   3.0000E+01  2.0325E+03  8.1000E-02  1.0000E+00  5.0000E+00  0.3000E+00  0.2000E+00  0.1500E+00  3.5000E+00  3.0000E-01
     1    35    49     4      17   6.0000E+01  2.0275E+03  9.9000E-02  1.0000E+00  5.0000E+00  0.3000E+00  0.2000E+00  0.1500E+00  3.5000E+00  3.0000E-01
     1    34    49     4      18   7.2000E+01  2.0215E+03  7.7000E-02  1.0000E+00  5.0000E+00  0.3000E+00  0.2000E+00  0.1500E+00  3.5000E+00  3.0000E-01
     1    34    50     4      19   3.0000E+01  2.0185E+03  5.7000E-02  1.0000E+00  5.0000E+00  0.3000E+00  0.2000E+00  0.1500E+00  3.5000E+00  3.0000E-01
     1    33    50     4      20   1.1400E+02  2.0145E+03  5.6000E-02  1.0000E+00  5.0000E+00  0.3000E+00  0.2000E+00  0.1500E+00  3.5000E+00  3.0000E-01
     1    55    72     5       1   9.0000E+01  2.0015E+03  4.4000E-02  1.0000E+00  5.0000E+00  0.3000E+00  0.2000E+00  0.1500E+00  3.5000E+00  3.0000E-01
     1    54    72     5       2   9.0000E+01  1.9975E+03  5.0000E-02  1.0000E+00  5.0000E+00  0.3000E+00  0.2000E+00  0.1500E+00  3.5000E+00  3.0000E-01
     1    53    72     5       3   9.0000E+01  1.9925E+03  7.5000E-02  1.0000E+00  5.0000E+00  0.3000E+00  0.2000E+00  0.1500E+00  3.5000E+00  3.0000E-01
     1    52    72     5       4   1.0200E+02  1.9835E+03  7.6000E-02  1.0000E+00  5.0000E+00  0.3000E+00  0.2000E+00  0.1500E+00  3.5000E+00  3.0000E-01
     1    51    72     5       5   1.0200E+02  1.9775E+03  7.4000E-02  1.0000E+00  5.0000E+00  0.3000E+00  0.2000E+00  0.1500E+00  3.5000E+00  3.0000E-01
     1    50    73     5       6   1.0200E+02  1.9685E+03  7.4000E-02  1.0000E+00  5.0000E+00  0.3000E+00  0.2000E+00  0.1500E+00  3.5000E+00  3.0000E-01
     1    49    73     5       7   1.0200E+02  1.9625E+03  7.1000E-02  1.0000E+00  5.0000E+00  0.3000E+00  0.2000E+00  0.1500E+00  3.5000E+00  3.0000E-01
     1    48    73     5       8   3.0000E+01  1.9565E+03  7.2000E-02  1.0000E+00  5.0000E+00  0.3000E+00  0.2000E+00  0.1500E+00  3.5000E+00  3.0000E-01
     1    48    74     5       9   6.0000E+01  1.9545E+03  5.6000E-02  1.0000E+00  5.0000E+00  0.3000E+00  0.2000E+00  0.1500E+00  3.5000E+00  3.0000E-01
     1    47    74     5      10   1.0200E+02  1.9495E+03  6.0000E-02  1.0000E+00  5.0000E+00  0.3000E+00  0.2000E+00  0.1500E+00  3.5000E+00  3.0000E-01
     1    46    75     5      11   1.0200E+02  1.9435E+03  4.8000E-02  1.0000E+00  5.0000E+00  0.3000E+00  0.2000E+00  0.1500E+00  3.5000E+00  3.0000E-01
     1    45    75     5      12   3.0000E+01  1.9415E+03  4.3000E-02  1.0000E+00  5.0000E+00  0.3000E+00  0.2000E+00  0.1500E+00  3.5000E+00  3.0000E-01
     1    45    76     5      13   7.2000E+01  1.9385E+03  4.9000E-02  1.0000E+00  5.0000E+00  0.3000E+00  0.2000E+00  0.1500E+00  3.5000E+00  3.0000E-01
     1    44    76     5      14   3.0000E+01  1.9365E+03  3.9000E-02  1.0000E+00  5.0000E+00  0.3000E+00  0.2000E+00  0.1500E+00  3.5000E+00  3.0000E-01
     1    45    62     6       1   9.0000E+01  2.0045E+03  4.2000E-02  1.0000E+00  5.0000E+00  0.3000E+00  0.2000E+00  0.1500E+00  3.5000E+00  3.0000E-01
     1    44    62     6       2   1.0200E+02  1.9995E+03  5.6000E-02  1.0000E+00  5.0000E+00  0.3000E+00  0.2000E+00  0.1500E+00  3.5000E+00  3.0000E-01
     1    43    62     6       3   3.0000E+01  1.9955E+03  8.1000E-02  1.0000E+00  5.0000E+00  0.3000E+00  0.2000E+00  0.1500E+00  3.5000E+00  3.0000E-01
     1    43    63     6       4   6.0000E+01  1.9915E+03  7.1000E-02  1.0000E+00  5.0000E+00  0.3000E+00  0.2000E+00  0.1500E+00  3.5000E+00  3.0000E-01
     1    42    63     6       5   1.0200E+02  1.9855E+03  6.8000E-02  1.0000E+00  5.0000E+00  0.3000E+00  0.2000E+00  0.1500E+00  3.5000E+00  3.0000E-01
     1    41    63     6       6   9.0000E+01  1.9795E+03  6.8000E-02  1.0000E+00  5.0000E+00  0.3000E+00  0.2000E+00  0.1500E+00  3.5000E+00  3.0000E-01
     1    40    63     6       7   1.0200E+02  1.9735E+03  6.8000E-02  1.0000E+00  5.0000E+00  0.3000E+00  0.2000E+00  0.1500E+00  3.5000E+00  3.0000E-01
     1    24    55     7       1   6.0000E+01  2.0335E+03  4.4000E-02  1.0000E+00  5.0000E+00  0.3000E+00  0.2000E+00  0.1500E+00  3.5000E+00  3.0000E-01
     1    25    55     7       2   3.0000E+01  2.0315E+03  7.8000E-02  1.0000E+00  5.0000E+00  0.3000E+00  0.2000E+00  0.1500E+00  3.5000E+00  3.0000E-01
     1    25    56     7       3   6.0000E+01  2.0265E+03  7.1000E-02  1.0000E+00  5.0000E+00  0.3000E+00  0.2000E+00  0.1500E+00  3.5000E+00  3.0000E-01
     1    26    56     7       4   1.0200E+02  2.0225E+03  5.1000E-02  1.0000E+00  5.0000E+00  0.3000E+00  0.2000E+00  0.1500E+00  3.5000E+00  3.0000E-01
     1    27    56     7       5   9.0000E+01  2.0175E+03  5.4000E-02  1.0000E+00  5.0000E+00  0.3000E+00  0.2000E+00  0.1500E+00  3.5000E+00  3.0000E-01
     1    28    57     7       6   9.0000E+01  2.0125E+03  5.6000E-02  1.0000E+00  5.0000E+00  0.3000E+00  0.2000E+00  0.1500E+00  3.5000E+00  3.0000E-01
     1    29    57     7       7   9.0000E+01  2.0075E+03  5.6000E-02  1.0000E+00  5.0000E+00  0.3000E+00  0.2000E+00  0.1500E+00  3.5000E+00  3.0000E-01
     1    30    57     7       8   9.0000E+01  2.0025E+03  5.0000E-02  1.0000E+00  5.0000E+00  0.3000E+00  0.2000E+00  0.1500E+00  3.5000E+00  3.0000E-01
     1    31    57     7       9   9.0000E+01  1.9985E+03  4.8000E-02  1.0000E+00  5.0000E+00  0.3000E+00  0.2000E+00  0.1500E+00  3.5000E+00  3.0000E-01
     1    32    57     7      10   1.0200E+02  1.9935E+03  3.8000E-02  1.0000E+00  5.0000E+00  0.3000E+00  0.2000E+00  0.1500E+00  3.5000E+00  3.0000E-01
     1    33    57     7      11   7.2000E+01  1.9915E+03  2.2000E-02  1.0000E+00  5.0000E+00  0.3000E+00  0.2000E+00  0.1500E+00  3.5000E+00  3.0000E-01
     1    33    58     7      12   3.0000E+01  1.9905E+03  4.9000E-02  1.0000E+00  5.0000E+00  0.3000E+00  0.2000E+00  0.1500E+00  3.5000E+00  3.0000E-01
     1    34    58     7      13   7.2000E+01  1.9865E+03  5.9000E-02  1.0000E+00  5.0000E+00  0.3000E+00  0.2000E+00  0.1500E+00  3.5000E+00  3.0000E-01
     1    34    59     7      14   3.0000E+01  1.9845E+03  4.3000E-02  1.0000E+00  5.0000E+00  0.3000E+00  0.2000E+00  0.1500E+00  3.5000E+00  3.0000E-01
     1    35    59     7      15   1.0200E+02  1.9815E+03  4.3000E-02  1.0000E+00  5.0000E+00  0.3000E+00  0.2000E+00  0.1500E+00  3.5000E+00  3.0000E-01
     1    36    59     7      16   9.0000E+01  1.9775E+03  4.5000E-02  1.0000E+00  5.0000E+00  0.3000E+00  0.2000E+00  0.1500E+00  3.5000E+00  3.0000E-01
     1    37    60     7      17   1.1400E+02  1.9725E+03  4.9000E-02  1.0000E+00  5.0000E+00  0.3000E+00  0.2000E+00  0.1500E+00  3.5000E+00  3.0000E-01
     1    23    71     8       1   9.0000E+01  2.0525E+03  4.2000E-02  1.0000E+00  5.0000E+00  0.3000E+00  0.2000E+00  0.1500E+00  3.5000E+00  3.0000E-01
     1    24    71     8       2   1.0200E+02  2.0485E+03  3.1000E-02  1.0000E+00  5.0000E+00  0.3000E+00  0.2000E+00  0.1500E+00  3.5000E+00  3.0000E-01
     1    25    71     8       3   9.0000E+01  2.0465E+03  1.6000E-02  1.0000E+00  5.0000E+00  0.3000E+00  0.2000E+00  0.1500E+00  3.5000E+00  3.0000E-01
     1    26    71     8       4   1.0200E+02  2.0455E+03  1.0000E-02  1.0000E+00  5.0000E+00  0.3000E+00  0.2000E+00  0.1500E+00  3.5000E+00  3.0000E-01
     1    27    72     8       5   1.0200E+02  2.0445E+03  1.2000E-02  1.0000E+00  5.0000E+00  0.3000E+00  0.2000E+00  0.1500E+00  3.5000E+00  3.0000E-01
     1    27    73     8       6   3.0000E+01  2.0435E+03  1.5000E-02  1.0000E+00  5.0000E+00  0.3000E+00  0.2000E+00  0.1500E+00  3.5000E+00  3.0000E-01
     1    28    73     8       7   1.0200E+02  2.0425E+03  1.2000E-02  1.0000E+00  5.0000E+00  0.3000E+00  0.2000E+00  0.1500E+00  3.5000E+00  3.0000E-01
     1    29    73     8       8   9.0000E+01  2.0415E+03  1.1000E-02  1.0000E+00  5.0000E+00  0.3000E+00  0.2000E+00  0.1500E+00  3.5000E+00  3.0000E-01
     1    30    73     8       9   9.0000E+01  2.0405E+03  2.2000E-02  1.0000E+00  5.0000E+00  0.3000E+00  0.2000E+00  0.1500E+00  3.5000E+00  3.0000E-01
     1    31    73     8      10   9.0000E+01  2.0375E+03  4.4000E-02  1.0000E+00  5.0000E+00  0.3000E+00  0.2000E+00  0.1500E+00  3.5000E+00  3.0000E-01
     1    32    73     8      11   9.0000E+01  2.0325E+03  5.6000E-02  1.0000E+00  5.0000E+00  0.3000E+00  0.2000E+00  0.1500E+00  3.5000E+00  3.0000E-01
     1    33    73     8      12   9.0000E+01  2.0275E+03  6.0000E-02  1.0000E+00  5.0000E+00  0.3000E+00  0.2000E+00  0.1500E+00  3.5000E+00  3.0000E-01
     1    34    73     8      13   3.0000E+01  2.0235E+03  1.1400E-01  1.0000E+00  5.0000E+00  0.3000E+00  0.2000E+00  0.1500E+00  3.5000E+00  3.0000E-01
     1    34    74     8      14   6.0000E+01  2.0155E+03  1.0000E-01  1.0000E+00  5.0000E+00  0.3000E+00  0.2000E+00  0.1500E+00  3.5000E+00  3.0000E-01
     1    35    74     8      15   9.0000E+01  2.0115E+03  6.7000E-02  1.0000E+00  5.0000E+00  0.3000E+00  0.2000E+00  0.1500E+00  3.5000E+00  3.0000E-01
     1    36    74     8      16   3.0000E+01  2.0065E+03  8.6000E-02  1.0000E+00  5.0000E+00  0.3000E+00  0.2000E+00  0.1500E+00  3.5000E+00  3.0000E-01
     1    36    73     8      17   6.0000E+01  2.0025E+03  1.2700E-01  1.0000E+00  5.0000E+00  0.3000E+00  0.2000E+00  0.1500E+00  3.5000E+00  3.0000E-01
     1    37    73     8      18   1.0200E+02  1.9905E+03  1.4100E-01  1.0000E+00  5.0000E+00  0.3000E+00  0.2000E+00  0.1500E+00  3.5000E+00  3.0000E-01
     1    38    72     8      19   9.0000E+01  1.9775E+03  1.1800E-01  1.0000E+00  5.0000E+00  0.3000E+00  0.2000E+00  0.1500E+00  3.5000E+00  3.0000E-01
     1    39    72     8      20   9.0000E+01  1.9685E+03  1.0000E-01  1.0000E+00  5.0000E+00  0.3000E+00  0.2000E+00  0.1500E+00  3.5000E+00  3.0000E-01
     1    40    72     8      21   9.0000E+01  1.9595E+03  8.3000E-02  1.0000E+00  5.0000E+00  0.3000E+00  0.2000E+00  0.1500E+00  3.5000E+00  3.0000E-01
     1    41    72     8      22   9.0000E+01  1.9535E+03  8.7000E-02  1.0000E+00  5.0000E+00  0.3000E+00  0.2000E+00  0.1500E+00  3.5000E+00  3.0000E-01
     1    42    72     8      23   3.0000E+01  1.9465E+03  1.0000E-01  1.0000E+00  5.0000E+00  0.3000E+00  0.2000E+00  0.1500E+00  3.5000E+00  3.0000E-01
     1    42    73     8      24   3.0000E+01  1.9445E+03  6.7000E-02  1.0000E+00  5.0000E+00  0.3000E+00  0.2000E+00  0.1500E+00  3.5000E+00  3.0000E-01
     1    31    38     9       1   9.0000E+01  2.0775E+03  5.6000E-02  1.0000E+00  5.0000E+00  0.3000E+00  0.2000E+00  0.1500E+00  3.5000E+00  3.0000E-01
     1    31    39     9       2   9.0000E+01  2.0725E+03  8.3000E-02  1.0000E+00  5.0000E+00  0.3000E+00  0.2000E+00  0.1500E+00  3.5000E+00  3.0000E-01
     1    31    40     9       3   9.0000E+01  2.0625E+03  1.0000E-01  1.0000E+00  5.0000E+00  0.3000E+00  0.2000E+00  0.1500E+00  3.5000E+00  3.0000E-01
     1    31    41     9       4   9.0000E+01  2.0545E+03  7.6000E-02  1.0000E+00  5.0000E+00  0.3000E+00  0.2000E+00  0.1500E+00  3.5000E+00  3.0000E-01
     1    31    42     9       5   7.2000E+01  2.0495E+03  4.5000E-02  1.0000E+00  5.0000E+00  0.3000E+00  0.2000E+00  0.1500E+00  3.5000E+00  3.0000E-01
     1    30    42     9       6   3.0000E+01  2.0485E+03  2.0000E-02  1.0000E+00  5.0000E+00  0.3000E+00  0.2000E+00  0.1500E+00  3.5000E+00  3.0000E-01
     1    30    43    10       1   9.0000E+01  2.0425E+03  5.3000E-02  1.0000E+00  5.0000E+00  0.3000E+00  0.2000E+00  0.1500E+00  3.5000E+00  3.0000E-01
     1    30    44    10       2   6.0000E+01  2.0385E+03  4.2000E-02  1.0000E+00  5.0000E+00  0.3000E+00  0.2000E+00  0.1500E+00  3.5000E+00  3.0000E-01
     1    29    44    10       3   3.0000E+01  2.0375E+03  3.8000E-02  1.0000E+00  5.0000E+00  0.3000E+00  0.2000E+00  0.1500E+00  3.5000E+00  3.0000E-01
     1    29    45    10       4   9.0000E+01  2.0345E+03  4.7000E-02  1.0000E+00  5.0000E+00  0.3000E+00  0.2000E+00  0.1500E+00  3.5000E+00  3.0000E-01
     1    29    46    10       5   9.0000E+01  2.0305E+03  4.7000E-02  1.0000E+00  5.0000E+00  0.3000E+00  0.2000E+00  0.1500E+00  3.5000E+00  3.0000E-01
     1    29    47    10       6   3.0000E+01  2.0275E+03  5.7000E-02  1.0000E+00  5.0000E+00  0.3000E+00  0.2000E+00  0.1500E+00  3.5000E+00  3.0000E-01
     1    30    47    10       7   6.0000E+01  2.0245E+03  4.0000E-02  1.0000E+00  5.0000E+00  0.3000E+00  0.2000E+00  0.1500E+00  3.5000E+00  3.0000E-01
     1    30    48    10       8   1.0200E+02  2.0225E+03  3.2000E-02  1.0000E+00  5.0000E+00  0.3000E+00  0.2000E+00  0.1500E+00  3.5000E+00  3.0000E-01
     1    31    49    10       9   1.1400E+02  2.0185E+03  4.5000E-02  1.0000E+00  5.0000E+00  0.3000E+00  0.2000E+00  0.1500E+00  3.5000E+00  3.0000E-01
     1    32    50    10      10   1.1400E+02  2.0125E+03  5.3000E-02  1.0000E+00  5.0000E+00  0.3000E+00  0.2000E+00  0.1500E+00  3.5000E+00  3.0000E-01
     1    32    51    11       1   9.0000E+01  2.0075E+03  4.2000E-02  1.0000E+00  5.0000E+00  0.3000E+00  0.2000E+00  0.1500E+00  3.5000E+00  3.0000E-01
     1    33    52    11       2   1.0200E+02  2.0035E+03  4.9000E-02  1.0000E+00  5.0000E+00  0.3000E+00  0.2000E+00  0.1500E+00  3.5000E+00  3.0000E-01
     1    33    53    11       3   3.0000E+01  1.9995E+03  9.4000E-02  1.0000E+00  5.0000E+00  0.3000E+00  0.2000E+00  0.1500E+00  3.5000E+00  3.0000E-01
     1    34    53    11       4   7.2000E+01  1.9925E+03  8.5000E-02  1.0000E+00  5.0000E+00  0.3000E+00  0.2000E+00  0.1500E+00  3.5000E+00  3.0000E-01
     1    34    54    11       5   6.0000E+01  1.9895E+03  3.6000E-02  1.0000E+00  5.0000E+00  0.3000E+00  0.2000E+00  0.1500E+00  3.5000E+00  3.0000E-01
     1    35    54    11       6   3.0000E+01  1.9885E+03  2.7000E-02  1.0000E+00  5.0000E+00  0.3000E+00  0.2000E+00  0.1500E+00  3.5000E+00  3.0000E-01
     1    35    55    11       7   1.0200E+02  1.9865E+03  3.0000E-02  1.0000E+00  5.0000E+00  0.3000E+00  0.2000E+00  0.1500E+00  3.5000E+00  3.0000E-01
     1    35    56    11       8   1.0200E+02  1.9835E+03  3.3000E-02  1.0000E+00  5.0000E+00  0.3000E+00  0.2000E+00  0.1500E+00  3.5000E+00  3.0000E-01
     1    36    57    11       9   1.1400E+02  1.9795E+03  2.4000E-02  1.0000E+00  5.0000E+00  0.3000E+00  0.2000E+00  0.1500E+00  3.5000E+00  3.0000E-01
     1    36    58    11      10   9.0000E+01  1.9785E+03  1.7000E-02  1.0000E+00  5.0000E+00  0.3000E+00  0.2000E+00  0.1500E+00  3.5000E+00  3.0000E-01
     1    36    59    11      11   6.0000E+01  1.9765E+03  2.5000E-02  1.0000E+00  5.0000E+00  0.3000E+00  0.2000E+00  0.1500E+00  3.5000E+00  3.0000E-01
     1    37    59    11      12   3.0000E+01  1.9755E+03  2.1000E-02  1.0000E+00  5.0000E+00  0.3000E+00  0.2000E+00  0.1500E+00  3.5000E+00  3.0000E-01
     1    37    60    11      13   7.2000E+01  1.9745E+03  1.5000E-02  1.0000E+00  5.0000E+00  0.3000E+00  0.2000E+00  0.1500E+00  3.5000E+00  3.0000E-01
     1    38    60    11      14   3.0000E+01  1.9735E+03  1.0000E-02  1.0000E+00  5.0000E+00  0.3000E+00  0.2000E+00  0.1500E+00  3.5000E+00  3.0000E-01
     1    38    61    12       1   1.0200E+02  1.9715E+03  1.0000E-02  1.0000E+00  5.0000E+00  0.3000E+00  0.2000E+00  0.1500E+00  3.5000E+00  3.0000E-01
     1    38    62    12       2   1.0200E+02  1.9705E+03  1.2000E-02  1.0000E+00  5.0000E+00  0.3000E+00  0.2000E+00  0.1500E+00  3.5000E+00  3.0000E-01
     1    38    63    12       3   3.0000E+01  1.9695E+03  1.8000E-02  1.0000E+00  5.0000E+00  0.3000E+00  0.2000E+00  0.1500E+00  3.5000E+00  3.0000E-01
     1    39    63    12       4   6.0000E+01  1.9685E+03  2.2000E-02  1.0000E+00  5.0000E+00  0.3000E+00  0.2000E+00  0.1500E+00  3.5000E+00  3.0000E-01
     1    39    64    13       1   1.2000E+02  1.9675E+03  1.7000E-02  1.0000E+00  5.0000E+00  0.3000E+00  0.2000E+00  0.1500E+00  3.5000E+00  3.0000E-01
     1    39    65    13       2   6.0000E+01  1.9665E+03  1.9000E-02  1.0000E+00  5.0000E+00  0.3000E+00  0.2000E+00  0.1500E+00  3.5000E+00  3.0000E-01
     1    40    65    13       3   3.0000E+01  1.9655E+03  1.0000E-02  1.0000E+00  5.0000E+00  0.3000E+00  0.2000E+00  0.1500E+00  3.5000E+00  3.0000E-01
     1    40    66    13       4   9.0000E+01  1.9645E+03  1.3000E-02  1.0000E+00  5.0000E+00  0.3000E+00  0.2000E+00  0.1500E+00  3.5000E+00  3.0000E-01
     1    40    67    13       5   9.0000E+01  1.9625E+03  2.2000E-02  1.0000E+00  5.0000E+00  0.3000E+00  0.2000E+00  0.1500E+00  3.5000E+00  3.0000E-01
     1    40    68    13       6   9.0000E+01  1.9605E+03  1.7000E-02  1.0000E+00  5.0000E+00  0.3000E+00  0.2000E+00  0.1500E+00  3.5000E+00  3.0000E-01
     1    41    69    13       7   9.0000E+01  1.9595E+03  2.1000E-02  1.0000E+00  5.0000E+00  0.3000E+00  0.2000E+00  0.1500E+00  3.5000E+00  3.0000E-01
     1    41    70    13       8   1.1400E+02  1.9565E+03  4.3000E-02  1.0000E+00  5.0000E+00  0.3000E+00  0.2000E+00  0.1500E+00  3.5000E+00  3.0000E-01
     1    42    71    13       9   1.0200E+02  1.9505E+03  4.4000E-02  1.0000E+00  5.0000E+00  0.3000E+00  0.2000E+00  0.1500E+00  3.5000E+00  3.0000E-01
     1    42    72    13      10   9.0000E+01  1.9475E+03  3.8000E-02  1.0000E+00  5.0000E+00  0.3000E+00  0.2000E+00  0.1500E+00  3.5000E+00  3.0000E-01
     1    42    73    13      11   3.0000E+01  1.9445E+03  5.0000E-02  1.0000E+00  5.0000E+00  0.3000E+00  0.2000E+00  0.1500E+00  3.5000E+00  3.0000E-01
     1    42    73    14       1   3.0000E+01  1.9435E+03  3.3000E-02  1.0000E+00  5.0000E+00  0.3000E+00  0.2000E+00  0.1500E+00  3.5000E+00  3.0000E-01
     1    43    73    14       2   3.0000E+01  1.9425E+03  2.1000E-02  1.0000E+00  5.0000E+00  0.3000E+00  0.2000E+00  0.1500E+00  3.5000E+00  3.0000E-01
     1    43    74    14       3   1.0200E+02  1.9415E+03  2.0000E-02  1.0000E+00  5.0000E+00  0.3000E+00  0.2000E+00  0.1500E+00  3.5000E+00  3.0000E-01
     1    43    75    14       4   6.0000E+01  1.9395E+03  2.4000E-02  1.0000E+00  5.0000E+00  0.3000E+00  0.2000E+00  0.1500E+00  3.5000E+00  3.0000E-01
     1    44    75    14       5   3.0000E+01  1.9385E+03  2.9000E-02  1.0000E+00  5.0000E+00  0.3000E+00  0.2000E+00  0.1500E+00  3.5000E+00  3.0000E-01
     1    44    76    14       6   9.0000E+01  1.9365E+03  2.0000E-02  1.0000E+00  5.0000E+00  0.3000E+00  0.2000E+00  0.1500E+00  3.5000E+00  3.0000E-01
     1    44    77    15       1   9.0000E+01  1.9355E+03  1.1000E-02  1.0000E+00  5.0000E+00  0.3000E+00  0.2000E+00  0.1500E+00  3.5000E+00  3.0000E-01
     1    44    78    15       2   9.0000E+01  1.9345E+03  2.4000E-02  1.0000E+00  5.0000E+00  0.3000E+00  0.2000E+00  0.1500E+00  3.5000E+00  3.0000E-01
     1    44    79    15       3   6.0000E+01  1.9315E+03  3.3000E-02  1.0000E+00  5.0000E+00  0.3000E+00  0.2000E+00  0.1500E+00  3.5000E+00  3.0000E-01
     1    45    79    15       4   3.0000E+01  1.9305E+03  2.2000E-02  1.0000E+00  5.0000E+00  0.3000E+00  0.2000E+00  0.1500E+00  3.5000E+00  3.0000E-01




 UZF1 -- UNSATURATED FLOW PACKAGE, VERSION 1.4, 02/06/2012
         INPUT READ FROM UNIT 14
 # UZF package for  MODFLOW-NWT, generated by Flopy.
 No named parameters

 PROCESSING UZF OPTIONS
 
 
 SURFACE LEAKAGE WILL NOT BE SIMULATED 
 
 
 A SQUARE ET FUNCTION WILL BE USED TO SIMULATE GW ET
 
 
VALUES SPECIFIED IN FINF FOR 
TRANSIENT GSFLOW MODELS WILL BE SAVED
 

 END PROCESSING UZF OPTIONS



            AREAL EXTENT OF UZ FLOW
 READING ON UNIT   14 WITH FORMAT: (FREE)              

                1           2           3           4           5           6           7           8           9          10
               11          12          13          14          15          16          17          18          19          20
               21          22          23          24          25          26          27          28          29          30
               31          32          33          34          35          36          37          38          39          40
               41          42          43          44          45          46          47          48          49          50
               51          52          53          54          55          56          57          58          59          60
               61          62          63          64          65          66          67          68          69          70
               71          72          73          74          75          76          77          78          79          80
               81
 ............................................................................................................................
   1            0           0           0           0           0           0           0           0           0           0
                0           0           0           0           0           0           0           0           0           0
                0           0           0           0           0           0           0           0           0           0
                0           0           0           0           0           0           0           0           0           0
                0           0           0           0           0           0           0           0           0           0
                0           0           0           0           0           0           0           0           0           0
                0           0           0           1           1           0           0           0           0           0
                0           0           0           0           0           0           0           0           0           0
                0
   2            0           0           0           0           0           0           0           0           0           0
                0           0           0           0           0           0           0           0           0           0
                0           0           0           0           0           0           0           0           0           0
                0           0           0           0           0           0           0           0           0           0
                0           0           0           0           0           0           0           0           0           0
                0           0           0           0           0           0           0           0           0           0
                0           0           1           1           1           0           0           0           0           0
                0           0           0           0           0           0           0           0           0           0
                0
   3            0           0           0           0           0           0           0           0           0           0
                0           0           0           0           0           0           0           0           0           0
                0           0           0           0           0           0           0           0           0           0
                0           0           0           0           0           0           0           0           0           0
                0           0           0           0           0           0           0           0           0           0
                0           0           0           0           0           0           0           0           0           0
                0           0           1           1           1           0           0           0           0           0
                0           0           0           0           0           0           0           0           0           0
                0
   4            0           0           0           0           0           0           0           0           0           0
                0           0           0           0           0           0           0           0           0           0
                0           0           0           0           0           0           0           0           0           0
                0           0           0           0           0           0           0           0           0           0
                0           0           0           0           0           0           0           0           0           0
                0           0           0           0           0           0           0           0           0           0
                0           1           1           1           1           0           0           0           0           0
                0           0           0           0           0           0           0           0           0           0
                0
   5            0           0           0           0           0           0           0           0           0           0
                0           0           0           0           0           0           0           0           0           0
                0           0           0           0           0           0           0           0           0           0
                0           0           0           0           0           0           0           0           0           0
                0           0           0           0           0           0           0           0           0           0
                0           0           0           0           0           0           0           0           0           0
                0           1           1           1           1           1           0           0           0           0
                0           0           0           0           0           0           0           0           0           0
                0
   6            0           0           0           0           0           0           0           0           0           0
                0           0           0           0           0           0           0           0           0           0
                0           0           0           0           0           0           0           0           0           0
                0           0           0           0           0           0           0           0           0           0
                0           0           0           0           0           0           0           0           0           0
                0           0           0           0           0           0           0           0           0           0
                0           1           1           1           1           1           1           0           0           0
                0           0           0           0           0           0           0           0           0           0
                0
   7            0           0           0           0           0           0           0           0           0           0
                0           0           0           0           0           0           0           0           0           0
                0           0           0           0           0           0           0           0           0           0
                0           0           0           0           0           0           0           0           0           0
                0           0           0           0           0           0           0           0           0           0
                0           0           0           0           0           0           0           0           0           0
                1           1           1           1           1           1           1           1           0           0
                0           0           0           0           0           0           0           0           0           0
                0
   8            0           0           0           0           0           0           0           0           0           0
                0           0           0           0           0           0           0           0           0           0
                0           0           0           0           0           0           0           0           0           0
                0           0           0           0           0           0           0           0           0           0
                0           0           0           0           0           0           0           0           0           0
                0           0           0           0           0           0           0           0           0           0
                1           1           1           1           1           1           1           1           1           1
                1           0           0           0           0           0           0           0           0           0
                0
   9            0           0           0           0           0           0           0           0           0           0
                0           0           0           0           0           0           0           0           0           0
                0           0           0           0           0           0           0           0           0           0
                0           0           0           0           0           0           0           0           0           0
                0           0           0           0           0           0           0           0           1           1
                0           0           0           0           0           0           0           0           1           1
                1           1           1           1           1           1           1           1           1           1
                1           1           1           1           1           0           0           0           0           0
                0
  10            0           0           0           0           0           0           0           0           0           0
                0           0           0           0           0           0           0           0           0           0
                0           0           0           0           0           0           0           0           0           0
                0           0           0           0           0           0           0           0           0           0
                0           0           0           0           0           0           0           1           1           1
                1           1           1           0           0           0           1           1           1           1
                1           1           1           1           1           1           1           1           1           1
                1           1           1           1           1           1           0           0           0           0
                0
  11            0           0           0           0           0           0           0           0           0           0
                0           0           0           0           0           0           0           0           0           0
                0           0           0           0           0           0           0           0           0           0
                0           0           0           0           0           0           0           0           0           0
                0           0           0           0           0           0           1           1           1           1
                1           1           1           1           1           1           1           1           1           1
                1           1           1           1           1           1           1           1           1           1
                1           1           1           1           1           1           0           0           0           0
                0
  12            0           0           0           0           0           0           0           0           0           0
                0           0           0           0           0           0           0           0           0           0
                0           0           0           0           0           0           0           0           0           0
                0           0           0           0           0           0           0           0           0           0
                0           0           0           0           0           0           1           1           1           1
                1           1           1           1           1           1           1           1           1           1
                1           1           1           1           1           1           1           1           1           1
                1           1           1           1           1           1           1           0           0           0
                0
  13            0           0           0           0           0           0           0           0           0           0
                0           0           0           0           0           0           0           0           0           0
                0           0           0           0           0           0           0           0           0           0
                0           0           0           0           0           0           0           0           0           0
                0           0           0           0           1           1           1           1           1           1
                1           1           1           1           1           1           1           1           1           1
                1           1           1           1           1           1           1           1           1           1
                1           1           1           1           1           1           1           1           0           0
                0
  14            0           0           0           0           0           0           0           0           0           0
                0           0           0           0           0           0           0           0           0           0
                0           0           0           0           0           0           0           0           0           0
                0           0           0           0           0           0           0           0           0           0
                0           1           1           1           1           1           1           1           1           1
                1           1           1           1           1           1           1           1           1           1
                1           1           1           1           1           1           1           1           1           1
                1           1           1           1           1           1           1           1           1           0
                0
  15            0           0           0           0           0           0           0           0           0           0
                0           0           0           0           0           0           0           0           0           0
                0           0           0           0           0           0           0           0           0           0
                0           0           0           0           0           0           0           0           0           0
                1           1           1           1           1           1           1           1           1           1
                1           1           1           1           1           1           1           1           1           1
                1           1           1           1           1           1           1           1           1           1
                1           1           1           1           1           1           1           1           1           1
                0
  16            0           0           0           0           0           0           0           0           0           0
                0           0           0           0           0           0           0           0           0           0
                0           0           0           0           0           0           0           0           0           0
                0           0           0           0           0           0           0           0           0           1
                1           1           1           1           1           1           1           1           1           1
                1           1           1           1           1           1           1           1           1           1
                1           1           1           1           1           1           1           1           1           1
                1           1           1           1           1           1           1           1           1           1
                0
  17            0           0           0           0           0           0           0           0           0           0
                0           0           0           0           0           0           0           0           0           0
                0           0           0           0           0           0           0           0           0           0
                0           0           0           0           0           0           0           0           0           1
                1           1           1           1           1           1           1           1           1           1
                1           1           1           1           1           1           1           1           1           1
                1           1           1           1           1           1           1           1           1           1
                1           1           1           1           1           1           1           1           1           1
                0
  18            0           0           0           0           0           0           0           0           0           0
                0           0           0           0           0           0           0           0           0           0
                0           0           0           0           0           0           0           0           0           0
                0           0           0           0           0           0           0           0           0           1
                1           1           1           1           1           1           1           1           1           1
                1           1           1           1           1           1           1           1           1           1
                1           1           1           1           1           1           1           1           1           1
                1           1           1           1           1           1           1           1           1           1
                0
  19            0           0           0           0           0           0           0           0           0           0
                0           0           0           0           0           0           0           0           0           0
                0           0           0           0           0           0           0           0           0           0
                0           0           0           0           1           1           1           1           1           1
                1           1           1           1           1           1           1           1           1           1
                1           1           1           1           1           1           1           1           1           1
                1           1           1           1           1           1           1           1           1           1
                1           1           1           1           1           1           1           1           1           1
                1
  20            0           0           0           0           0           0           0           0           0           0
                0           0           0           0           0           0           0           0           0           0
                0           0           0           0           0           0           0           0           0           0
                0           0           1           1           1           1           1           1           1           1
                1           1           1           1           1           1           1           1           1           1
                1           1           1           1           1           1           1           1           1           1
                1           1           1           1           1           1           1           1           1           1
                1           1           1           1           1           1           1           1           1           1
                1
  21            0           0           0           0           0           0           0           0           0           0
                0           0           0           0           0           0           0           0           0           0
                0           0           0           0           0           0           0           0           0           1
                1           1           1           1           1           1           1           1           1           1
                1           1           1           1           1           1           1           1           1           1
                1           1           1           1           1           1           1           1           1           1
                1           1           1           1           1           1           1           1           1           1
                1           1           1           1           1           1           1           1           1           1
                1
  22            0           0           0           0           0           0           0           0           0           0
                0           0           0           0           0           0           0           0           0           0
                0           0           0           0           0           0           1           1           1           1
                1           1           1           1           1           1           1           1           1           1
                1           1           1           1           1           1           1           1           1           1
                1           1           1           1           1           1           1           1           1           1
                1           1           1           1           1           1           1           1           1           1
                1           1           1           1           1           1           1           1           1           1
                1
  23            0           0           0           0           0           0           0           0           0           0
                0           0           0           0           0           0           0           0           0           0
                0           0           0           0           1           1           1           1           1           1
                1           1           1           1           1           1           1           1           1           1
                1           1           1           1           1           1           1           1           1           1
                1           1           1           1           1           1           1           1           1           1
                1           1           1           1           1           1           1           1           1           1
                1           1           1           1           1           1           1           1           1           1
                1
  24            0           0           0           0           0           0           0           0           0           0
                0           0           0           0           0           0           0           0           0           0
                0           0           1           1           1           1           1           1           1           1
                1           1           1           1           1           1           1           1           1           1
                1           1           1           1           1           1           1           1           1           1
                1           1           1           1           1           1           1           1           1           1
                1           1           1           1           1           1           1           1           1           1
                1           1           1           1           1           1           1           1           1           1
                1
  25            0           0           0           0           0           0           0           0           0           0
                0           0           0           0           0           0           0           0           0           0
                1           1           1           1           1           1           1           1           1           1
                1           1           1           1           1           1           1           1           1           1
                1           1           1           1           1           1           1           1           1           1
                1           1           1           1           1           1           1           1           1           1
                1           1           1           1           1           1           1           1           1           1
                1           1           1           1           1           1           1           1           1           1
                0
  26            0           0           0           0           0           0           0           0           0           0
                0           0           0           0           0           0           0           0           1           1
                1           1           1           1           1           1           1           1           1           1
                1           1           1           1           1           1           1           1           1           1
                1           1           1           1           1           1           1           1           1           1
                1           1           1           1           1           1           1           1           1           1
                1           1           1           1           1           1           1           1           1           1
                1           1           1           1           1           1           1           1           1           0
                0
  27            0           0           0           0           0           0           0           0           0           0
                0           0           0           0           0           0           0           1           1           1
                1           1           1           1           1           1           1           1           1           1
                1           1           1           1           1           1           1           1           1           1
                1           1           1           1           1           1           1           1           1           1
                1           1           1           1           1           1           1           1           1           1
                1           1           1           1           1           1           1           1           1           1
                1           1           1           1           1           1           0           0           0           0
                0
  28            0           0           0           0           0           0           0           0           0           0
                0           0           0           0           0           0           1           1           1           1
                1           1           1           1           1           1           1           1           1           1
                1           1           1           1           1           1           1           1           1           1
                1           1           1           1           1           1           1           1           1           1
                1           1           1           1           1           1           1           1           1           1
                1           1           1           1           1           1           1           1           1           1
                1           1           1           1           1           1           0           0           0           0
                0
  29            0           0           0           0           0           0           0           0           0           0
                0           1           1           1           1           1           1           1           1           1
                1           1           1           1           1           1           1           1           1           1
                1           1           1           1           1           1           1           1           1           1
                1           1           1           1           1           1           1           1           1           1
                1           1           1           1           1           1           1           1           1           1
                1           1           1           1           1           1           1           1           1           1
                1           1           1           1           1           1           0           0           0           0
                0
  30            0           0           0           0           0           0           0           0           0           0
                1           1           1           1           1           1           1           1           1           1
                1           1           1           1           1           1           1           1           1           1
                1           1           1           1           1           1           1           1           1           1
                1           1           1           1           1           1           1           1           1           1
                1           1           1           1           1           1           1           1           1           1
                1           1           1           1           1           1           1           1           1           1
                1           1           1           1           1           1           0           0           0           0
                0
  31            0           0           0           0           0           0           0           0           0           1
                1           1           1           1           1           1           1           1           1           1
                1           1           1           1           1           1           1           1           1           1
                1           1           1           1           1           1           1           1           1           1
                1           1           1           1           1           1           1           1           1           1
                1           1           1           1           1           1           1           1           1           1
                1           1           1           1           1           1           1           1           1           1
                1           1           1           1           1           1           0           0           0           0
                0
  32            0           0           0           0           0           0           0           0           1           1
                1           1           1           1           1           1           1           1           1           1
                1           1           1           1           1           1           1           1           1           1
                1           1           1           1           1           1           1           1           1           1
                1           1           1           1           1           1           1           1           1           1
                1           1           1           1           1           1           1           1           1           1
                1           1           1           1           1           1           1           1           1           1
                1           1           1           1           1           1           0           0           0           0
                0
  33            0           0           0           0           0           0           0           0           1           1
                1           1           1           1           1           1           1           1           1           1
                1           1           1           1           1           1           1           1           1           1
                1           1           1           1           1           1           1           1           1           1
                1           1           1           1           1           1           1           1           1           1
                1           1           1           1           1           1           1           1           1           1
                1           1           1           1           1           1           1           1           1           1
                1           1           1           1           1           1           0           0           0           0
                0
  34            0           0           0           0           0           0           1           1           1           1
                1           1           1           1           1           1           1           1           1           1
                1           1           1           1           1           1           1           1           1           1
                1           1           1           1           1           1           1           1           1           1
                1           1           1           1           1           1           1           1           1           1
                1           1           1           1           1           1           1           1           1           1
                1           1           1           1           1           1           1           1           1           1
                1           1           1           1           1           1           0           0           0           0
                0
  35            0           0           0           0           0           1           1           1           1           1
                1           1           1           1           1           1           1           1           1           1
                1           1           1           1           1           1           1           1           1           1
                1           1           1           1           1           1           1           1           1           1
                1           1           1           1           1           1           1           1           1           1
                1           1           1           1           1           1           1           1           1           1
                1           1           1           1           1           1           1           1           1           1
                1           1           1           1           1           1           0           0           0           0
                0
  36            0           0           0           0           0           1           1           1           1           1
                1           1           1           1           1           1           1           1           1           1
                1           1           1           1           1           1           1           1           1           1
                1           1           1           1           1           1           1           1           1           1
                1           1           1           1           1           1           1           1           1           1
                1           1           1           1           1           1           1           1           1           1
                1           1           1           1           1           1           1           1           1           1
                1           1           1           1           1           1           0           0           0           0
                0
  37            0           0           0           0           0           1           1           1           1           1
                1           1           1           1           1           1           1           1           1           1
                1           1           1           1           1           1           1           1           1           1
                1           1           1           1           1           1           1           1           1           1
                1           1           1           1           1           1           1           1           1           1
                1           1           1           1           1           1           1           1           1           1
                1           1           1           1           1           1           1           1           1           1
                1           1           1           1           1           1           0           0           0           0
                0
  38            0           0           0           0           0           1           1           1           1           1
                1           1           1           1           1           1           1           1           1           1
                1           1           1           1           1           1           1           1           1           1
                1           1           1           1           1           1           1           1           1           1
                1           1           1           1           1           1           1           1           1           1
                1           1           1           1           1           1           1           1           1           1
                1           1           1           1           1           1           1           1           1           1
                1           1           1           1           1           1           1           0           0           0
                0
  39            0           0           0           0           0           1           1           1           1           1
                1           1           1           1           1           1           1           1           1           1
                1           1           1           1           1           1           1           1           1           1
                1           1           1           1           1           1           1           1           1           1
                1           1           1           1           1           1           1           1           1           1
                1           1           1           1           1           1           1           1           1           1
                1           1           1           1           1           1           1           1           1           1
                1           1           1           1           1           1           1           0           0           0
                0
  40            0           0           0           0           1           1           1           1           1           1
                1           1           1           1           1           1           1           1           1           1
                1           1           1           1           1           1           1           1           1           1
                1           1           1           1           1           1           1           1           1           1
                1           1           1           1           1           1           1           1           1           1
                1           1           1           1           1           1           1           1           1           1
                1           1           1           1           1           1           1           1           1           1
                1           1           1           1           1           1           1           1           0           0
                0
  41            0           0           0           0           1           1           1           1           1           1
                1           1           1           1           1           1           1           1           1           1
                1           1           1           1           1           1           1           1           1           1
                1           1           1           1           1           1           1           1           1           1
                1           1           1           1           1           1           1           1           1           1
                1           1           1           1           1           1           1           1           1           1
                1           1           1           1           1           1           1           1           1           1
                1           1           1           1           1           1           1           1           1           0
                0
  42            0           0           0           1           1           1           1           1           1           1
                1           1           1           1           1           1           1           1           1           1
                1           1           1           1           1           1           1           1           1           1
                1           1           1           1           1           1           1           1           1           1
                1           1           1           1           1           1           1           1           1           1
                1           1           1           1           1           1           1           1           1           1
                1           1           1           1           1           1           1           1           1           1
                1           1           1           1           1           1           1           1           1           0
                0
  43            0           0           0           1           1           1           1           1           1           1
                1           1           1           1           1           1           1           1           1           1
                1           1           1           1           1           1           1           1           1           1
                1           1           1           1           1           1           1           1           1           1
                1           1           1           1           1           1           1           1           1           1
                1           1           1           1           1           1           1           1           1           1
                1           1           1           1           1           1           1           1           1           1
                1           1           1           1           1           1           1           1           1           0
                0
  44            0           0           1           1           1           1           1           1           1           1
                1           1           1           1           1           1           1           1           1           1
                1           1           1           1           1           1           1           1           1           1
                1           1           1           1           1           1           1           1           1           1
                1           1           1           1           1           1           1           1           1           1
                1           1           1           1           1           1           1           1           1           1
                1           1           1           1           1           1           1           1           1           1
                1           1           1           1           1           1           1           1           1           0
                0
  45            0           1           1           1           1           1           1           1           1           1
                1           1           1           1           1           1           1           1           1           1
                1           1           1           1           1           1           1           1           1           1
                1           1           1           1           1           1           1           1           1           1
                1           1           1           1           1           1           1           1           1           1
                1           1           1           1           1           1           1           1           1           1
                1           1           1           1           1           1           1           1           1           1
                1           1           1           1           1           1           1           1           1           0
                0
  46            0           1           1           1           1           1           1           1           1           1
                1           1           1           1           1           1           1           1           1           1
                1           1           1           1           1           1           1           1           1           1
                1           1           1           1           1           1           1           1           1           1
                1           1           1           1           1           1           1           1           1           1
                1           1           1           1           1           1           1           1           1           1
                1           1           1           1           1           1           1           1           1           1
                1           1           1           1           1           1           1           1           0           0
                0
  47            1           1           1           1           1           1           1           1           1           1
                1           1           1           1           1           1           1           1           1           1
                1           1           1           1           1           1           1           1           1           1
                1           1           1           1           1           1           1           1           1           1
                1           1           1           1           1           1           1           1           1           1
                1           1           1           1           1           1           1           1           1           1
                1           1           1           1           1           1           1           1           1           1
                1           1           1           1           1           1           1           1           0           0
                0
  48            0           1           1           1           1           1           1           1           1           1
                1           1           1           1           1           1           1           1           1           1
                1           1           1           1           1           1           1           1           1           1
                1           1           1           1           1           1           1           1           1           1
                1           1           1           1           1           1           1           1           1           1
                1           1           1           1           1           1           1           1           1           1
                1           1           1           1           1           1           1           1           1           1
                1           1           1           1           1           1           1           0           0           0
                0
  49            0           0           1           1           1           1           1           1           1           1
                1           1           1           1           1           1           1           1           1           1
                1           1           1           1           1           1           1           1           1           1
                1           1           1           1           1           1           1           1           1           1
                1           1           1           1           1           1           1           1           1           1
                1           1           1           1           1           1           1           1           1           1
                1           1           1           1           1           1           1           1           1           1
                1           1           1           1           1           1           0           0           0           0
                0
  50            0           0           0           1           1           1           1           1           1           1
                1           1           1           1           1           1           1           1           1           1
                1           1           1           1           1           1           1           1           1           1
                1           1           1           1           1           1           1           1           1           1
                1           1           1           1           1           1           1           1           1           1
                1           1           1           1           1           1           1           1           1           1
                1           1           1           1           1           1           1           1           1           1
                1           1           1           1           1           1           0           0           0           0
                0
  51            0           0           0           0           0           0           0           0           1           1
                1           1           1           0           0           1           1           1           1           1
                1           1           1           1           1           1           1           1           1           1
                1           1           1           1           1           1           1           1           1           1
                1           1           1           1           1           1           1           1           1           1
                1           1           1           1           1           1           1           1           1           1
                1           1           1           1           1           1           1           1           1           1
                1           1           1           1           1           1           0           0           0           0
                0
  52            0           0           0           0           0           0           0           0           0           0
                0           0           0           0           0           0           1           1           1           1
                1           1           1           1           1           1           1           1           1           1
                1           1           1           1           1           1           1           1           1           1
                1           1           1           1           1           1           1           1           1           1
                1           1           1           1           1           1           1           1           1           1
                1           1           1           1           1           1           1           1           1           1
                1           1           1           1           1           1           0           0           0           0
                0
  53            0           0           0           0           0           0           0           0           0           0
                0           0           0           0           0           0           0           1           1           1
                1           1           1           1           1           1           1           1           1           1
                1           1           1           1           1           1           1           1           1           1
                1           1           1           1           1           1           1           1           1           1
                1           1           1           1           1           1           1           1           1           1
                1           1           1           1           1           1           1           1           1           1
                1           1           1           1           1           1           0           0           0           0
                0
  54            0           0           0           0           0           0           0           0           0           0
                0           0           0           0           0           0           0           0           1           1
                1           1           1           1           1           1           1           1           1           1
                1           1           1           1           1           1           1           1           1           1
                1           1           1           1           1           1           1           1           1           1
                1           1           1           1           1           1           1           1           1           1
                1           1           1           1           1           1           1           1           1           1
                1           1           1           1           1           1           0           0           0           0
                0
  55            0           0           0           0           0           0           0           0           0           0
                0           0           0           0           0           0           0           0           1           1
                1           1           1           1           1           1           1           1           1           1
                1           1           1           1           1           1           1           1           1           1
                1           1           1           1           1           1           1           1           1           1
                1           1           1           1           1           1           1           1           1           1
                1           1           1           1           1           1           1           1           1           1
                1           1           1           1           1           1           0           0           0           0
                0
  56            0           0           0           0           0           0           0           0           0           0
                0           0           0           0           0           0           0           0           0           0
                0           1           1           1           1           1           1           1           1           1
                1           1           1           1           1           1           1           1           1           1
                1           1           1           1           1           1           1           1           1           1
                1           1           1           1           1           1           1           1           1           1
                1           1           1           1           1           1           1           1           1           1
                1           1           1           1           1           1           0           0           0           0
                0
  57            0           0           0           0           0           0           0           0           0           0
                0           0           0           0           0           0           0           0           0           0
                0           0           1           1           1           1           1           1           1           1
                1           1           1           1           1           1           1           1           1           1
                1           1           1           1           1           1           1           1           1           1
                1           1           1           1           1           1           1           1           1           1
                1           1           1           1           1           1           1           1           1           1
                1           1           1           1           1           1           0           0           0           0
                0
  58            0           0           0           0           0           0           0           0           0           0
                0           0           0           0           0           0           0           0           0           0
                0           0           0           1           1           1           1           1           1           1
                1           1           1           1           1           1           1           1           1           1
                1           1           1           1           1           1           1           1           1           1
                1           1           1           1           1           1           1           1           1           1
                1           1           1           1           1           1           1           1           1           1
                1           1           1           1           1           1           0           0           0           0
                0
  59            0           0           0           0           0           0           0           0           0           0
                0           0           0           0           0           0           0           0           0           0
                0           0           0           0           0           0           0           0           0           1
                1           1           1           1           1           1           1           1           1           1
                1           1           1           1           1           1           1           1           1           1
                1           1           1           1           1           1           1           1           1           1
                1           1           1           1           1           1           1           1           1           1
                1           1           1           1           1           1           0           0           0           0
                0
  60            0           0           0           0           0           0           0           0           0           0
                0           0           0           0           0           0           0           0           0           0
                0           0           0           0           0           0           0           0           0           0
                0           1           1           1           1           1           1           1           1           1
                1           1           1           1           1           1           1           1           1           1
                1           1           1           1           1           1           1           1           1           1
                1           1           1           1           1           1           1           1           1           1
                1           1           1           1           1           1           0           0           0           0
                0
  61            0           0           0           0           0           0           0           0           0           0
                0           0           0           0           0           0           0           0           0           0
                0           0           0           0           0           0           0           0           0           0
                0           0           1           1           1           1           1           1           1           1
                1           1           1           1           1           1           1           1           1           1
                1           1           1           1           1           1           1           1           1           1
                1           1           1           1           1           1           1           1           1           1
                1           1           1           1           1           1           0           0           0           0
                0
  62            0           0           0           0           0           0           0           0           0           0
                0           0           0           0           0           0           0           0           0           0
                0           0           0           0           0           0           0           0           0           0
                0           0           0           1           1           0           0           0           0           0
                0           0           0           0           0           0           1           1           1           1
                1           1           1           1           1           1           1           1           1           1
                1           1           1           1           1           1           1           1           1           1
                1           1           1           1           1           1           0           0           0           0
                0
  63            0           0           0           0           0           0           0           0           0           0
                0           0           0           0           0           0           0           0           0           0
                0           0           0           0           0           0           0           0           0           0
                0           0           0           0           0           0           0           0           0           0
                0           0           0           0           0           0           1           1           1           1
                1           1           1           1           1           1           1           1           1           1
                1           1           1           1           1           1           1           1           1           1
                1           1           1           1           1           1           0           0           0           0
                0
  64            0           0           0           0           0           0           0           0           0           0
                0           0           0           0           0           0           0           0           0           0
                0           0           0           0           0           0           0           0           0           0
                0           0           0           0           0           0           0           0           0           0
                0           0           0           0           0           0           0           1           1           1
                1           1           1           1           1           1           1           1           1           1
                1           1           1           1           1           1           1           1           1           1
                1           1           1           1           1           1           0           0           0           0
                0
  65            0           0           0           0           0           0           0           0           0           0
                0           0           0           0           0           0           0           0           0           0
                0           0           0           0           0           0           0           0           0           0
                0           0           0           0           0           0           0           0           0           0
                0           0           0           0           0           0           0           0           1           1
                1           1           1           1           1           1           1           1           1           1
                1           1           1           1           1           1           1           1           1           1
                1           1           1           1           1           1           0           0           0           0
                0
  66            0           0           0           0           0           0           0           0           0           0
                0           0           0           0           0           0           0           0           0           0
                0           0           0           0           0           0           0           0           0           0
                0           0           0           0           0           0           0           0           0           0
                0           0           0           0           0           0           0           0           0           1
                1           1           1           1           1           1           1           1           1           1
                1           1           1           1           1           1           1           1           1           1
                1           1           1           1           1           1           0           0           0           0
                0
  67            0           0           0           0           0           0           0           0           0           0
                0           0           0           0           0           0           0           0           0           0
                0           0           0           0           0           0           0           0           0           0
                0           0           0           0           0           0           0           0           0           0
                0           0           0           0           0           0           0           0           0           1
                1           1           1           1           1           1           1           1           1           1
                1           1           1           1           1           1           1           1           1           1
                1           1           1           1           1           1           0           0           0           0
                0
  68            0           0           0           0           0           0           0           0           0           0
                0           0           0           0           0           0           0           0           0           0
                0           0           0           0           0           0           0           0           0           0
                0           0           0           0           0           0           0           0           0           0
                0           0           0           0           0           0           0           0           0           0
                1           1           1           1           1           1           1           1           1           1
                1           1           1           1           1           1           1           1           1           1
                1           1           1           1           1           1           0           0           0           0
                0
  69            0           0           0           0           0           0           0           0           0           0
                0           0           0           0           0           0           0           0           0           0
                0           0           0           0           0           0           0           0           0           0
                0           0           0           0           0           0           0           0           0           0
                0           0           0           0           0           0           0           0           0           0
                0           0           0           0           0           0           1           1           1           1
                1           1           1           1           1           1           1           1           1           1
                1           1           1           1           1           1           0           0           0           0
                0
  70            0           0           0           0           0           0           0           0           0           0
                0           0           0           0           0           0           0           0           0           0
                0           0           0           0           0           0           0           0           0           0
                0           0           0           0           0           0           0           0           0           0
                0           0           0           0           0           0           0           0           0           0
                0           0           0           0           0           0           1           1           1           1
                1           1           1           1           1           1           1           1           1           1
                1           1           1           1           1           0           0           0           0           0
                0
  71            0           0           0           0           0           0           0           0           0           0
                0           0           0           0           0           0           0           0           0           0
                0           0           0           0           0           0           0           0           0           0
                0           0           0           0           0           0           0           0           0           0
                0           0           0           0           0           0           0           0           0           0
                0           0           0           0           0           0           0           1           1           1
                1           1           1           1           0           0           0           0           0           0
                0           0           0           0           1           0           0           0           0           0
                0
  72            0           0           0           0           0           0           0           0           0           0
                0           0           0           0           0           0           0           0           0           0
                0           0           0           0           0           0           0           0           0           0
                0           0           0           0           0           0           0           0           0           0
                0           0           0           0           0           0           0           0           0           0
                0           0           0           0           0           0           0           0           1           1
                1           1           0           0           0           0           0           0           0           0
                0           0           0           0           0           0           0           0           0           0
                0
  73            0           0           0           0           0           0           0           0           0           0
                0           0           0           0           0           0           0           0           0           0
                0           0           0           0           0           0           0           0           0           0
                0           0           0           0           0           0           0           0           0           0
                0           0           0           0           0           0           0           0           0           0
                0           0           0           0           0           0           0           0           1           1
                1           0           0           0           0           0           0           0           0           0
                0           0           0           0           0           0           0           0           0           0
                0
 OPTION 3 -- RECHARGE IN UZF TO HIGHEST ACTIVE NODE IN EACH VERTICAL COLUMN



               SATURATED VERTICAL K
 READING ON UNIT   14 WITH FORMAT: (FREE)              

            1           2           3           4           5           6           7           8           9          10
           11          12          13          14          15          16          17          18          19          20
           21          22          23          24          25          26          27          28          29          30
           31          32          33          34          35          36          37          38          39          40
           41          42          43          44          45          46          47          48          49          50
           51          52          53          54          55          56          57          58          59          60
           61          62          63          64          65          66          67          68          69          70
           71          72          73          74          75          76          77          78          79          80
           81
 ........................................................................................................................
   1    0.000       0.000       0.000       0.000       0.000       0.000       0.000       0.000       0.000       0.000    
        0.000       0.000       0.000       0.000       0.000       0.000       0.000       0.000       0.000       0.000    
        0.000       0.000       0.000       0.000       0.000       0.000       0.000       0.000       0.000       0.000    
        0.000       0.000       0.000       0.000       0.000       0.000       0.000       0.000       0.000       0.000    
        0.000       0.000       0.000       0.000       0.000       0.000       0.000       0.000       0.000       0.000    
        0.000       0.000       0.000       0.000       0.000       0.000       0.000       0.000       0.000       0.000    
        0.000       0.000       0.000      1.8000E-02  1.8000E-02   0.000       0.000       0.000       0.000       0.000    
        0.000       0.000       0.000       0.000       0.000       0.000       0.000       0.000       0.000       0.000    
        0.000    
   2    0.000       0.000       0.000       0.000       0.000       0.000       0.000       0.000       0.000       0.000    
        0.000       0.000       0.000       0.000       0.000       0.000       0.000       0.000       0.000       0.000    
        0.000       0.000       0.000       0.000       0.000       0.000       0.000       0.000       0.000       0.000    
        0.000       0.000       0.000       0.000       0.000       0.000       0.000       0.000       0.000       0.000    
        0.000       0.000       0.000       0.000       0.000       0.000       0.000       0.000       0.000       0.000    
        0.000       0.000       0.000       0.000       0.000       0.000       0.000       0.000       0.000       0.000    
        0.000       0.000      1.8000E-02  4.5000E-02  4.5000E-02   0.000       0.000       0.000       0.000       0.000    
        0.000       0.000       0.000       0.000       0.000       0.000       0.000       0.000       0.000       0.000    
        0.000    
   3    0.000       0.000       0.000       0.000       0.000       0.000       0.000       0.000       0.000       0.000    
        0.000       0.000       0.000       0.000       0.000       0.000       0.000       0.000       0.000       0.000    
        0.000       0.000       0.000       0.000       0.000       0.000       0.000       0.000       0.000       0.000    
        0.000       0.000       0.000       0.000       0.000       0.000       0.000       0.000       0.000       0.000    
        0.000       0.000       0.000       0.000       0.000       0.000       0.000       0.000       0.000       0.000    
        0.000       0.000       0.000       0.000       0.000       0.000       0.000       0.000       0.000       0.000    
        0.000       0.000      4.5000E-02  4.5000E-02  9.0000E-02   0.000       0.000       0.000       0.000       0.000    
        0.000       0.000       0.000       0.000       0.000       0.000       0.000       0.000       0.000       0.000    
        0.000    
   4    0.000       0.000       0.000       0.000       0.000       0.000       0.000       0.000       0.000       0.000    
        0.000       0.000       0.000       0.000       0.000       0.000       0.000       0.000       0.000       0.000    
        0.000       0.000       0.000       0.000       0.000       0.000       0.000       0.000       0.000       0.000    
        0.000       0.000       0.000       0.000       0.000       0.000       0.000       0.000       0.000       0.000    
        0.000       0.000       0.000       0.000       0.000       0.000       0.000       0.000       0.000       0.000    
        0.000       0.000       0.000       0.000       0.000       0.000       0.000       0.000       0.000       0.000    
        0.000      1.8000E-02  4.5000E-02  4.5000E-02  9.0000E-02   0.000       0.000       0.000       0.000       0.000    
        0.000       0.000       0.000       0.000       0.000       0.000       0.000       0.000       0.000       0.000    
        0.000    
   5    0.000       0.000       0.000       0.000       0.000       0.000       0.000       0.000       0.000       0.000    
        0.000       0.000       0.000       0.000       0.000       0.000       0.000       0.000       0.000       0.000    
        0.000       0.000       0.000       0.000       0.000       0.000       0.000       0.000       0.000       0.000    
        0.000       0.000       0.000       0.000       0.000       0.000       0.000       0.000       0.000       0.000    
        0.000       0.000       0.000       0.000       0.000       0.000       0.000       0.000       0.000       0.000    
        0.000       0.000       0.000       0.000       0.000       0.000       0.000       0.000       0.000       0.000    
        0.000      4.5000E-02  4.5000E-02  4.5000E-02  9.0000E-02  4.5000E-02   0.000       0.000       0.000       0.000    
        0.000       0.000       0.000       0.000       0.000       0.000       0.000       0.000       0.000       0.000    
        0.000    
   6    0.000       0.000       0.000       0.000       0.000       0.000       0.000       0.000       0.000       0.000    
        0.000       0.000       0.000       0.000       0.000       0.000       0.000       0.000       0.000       0.000    
        0.000       0.000       0.000       0.000       0.000       0.000       0.000       0.000       0.000       0.000    
        0.000       0.000       0.000       0.000       0.000       0.000       0.000       0.000       0.000       0.000    
        0.000       0.000       0.000       0.000       0.000       0.000       0.000       0.000       0.000       0.000    
        0.000       0.000       0.000       0.000       0.000       0.000       0.000       0.000       0.000       0.000    
        0.000      4.5000E-02  4.5000E-02  4.5000E-02  9.0000E-02  9.0000E-02  4.5000E-02   0.000       0.000       0.000    
        0.000       0.000       0.000       0.000       0.000       0.000       0.000       0.000       0.000       0.000    
        0.000    
   7    0.000       0.000       0.000       0.000       0.000       0.000       0.000       0.000       0.000       0.000    
        0.000       0.000       0.000       0.000       0.000       0.000       0.000       0.000       0.000       0.000    
        0.000       0.000       0.000       0.000       0.000       0.000       0.000       0.000       0.000       0.000    
        0.000       0.000       0.000       0.000       0.000       0.000       0.000       0.000       0.000       0.000    
        0.000       0.000       0.000       0.000       0.000       0.000       0.000       0.000       0.000       0.000    
        0.000       0.000       0.000       0.000       0.000       0.000       0.000       0.000       0.000       0.000    
       1.8000E-02  4.5000E-02  4.5000E-02  4.5000E-02  9.0000E-02  9.0000E-02  9.0000E-02  4.5000E-02   0.000       0.000    
        0.000       0.000       0.000       0.000       0.000       0.000       0.000       0.000       0.000       0.000    
        0.000    
   8    0.000       0.000       0.000       0.000       0.000       0.000       0.000       0.000       0.000       0.000    
        0.000       0.000       0.000       0.000       0.000       0.000       0.000       0.000       0.000       0.000    
        0.000       0.000       0.000       0.000       0.000       0.000       0.000       0.000       0.000       0.000    
        0.000       0.000       0.000       0.000       0.000       0.000       0.000       0.000       0.000       0.000    
        0.000       0.000       0.000       0.000       0.000       0.000       0.000       0.000       0.000       0.000    
        0.000       0.000       0.000       0.000       0.000       0.000       0.000       0.000       0.000       0.000    
       3.6000E-02  4.5000E-02  4.5000E-02  4.5000E-02  9.0000E-02  9.0000E-02  9.0000E-02  4.5000E-02  4.5000E-02  4.5000E-02
       4.5000E-02   0.000       0.000       0.000       0.000       0.000       0.000       0.000       0.000       0.000    
        0.000    
   9    0.000       0.000       0.000       0.000       0.000       0.000       0.000       0.000       0.000       0.000    
        0.000       0.000       0.000       0.000       0.000       0.000       0.000       0.000       0.000       0.000    
        0.000       0.000       0.000       0.000       0.000       0.000       0.000       0.000       0.000       0.000    
        0.000       0.000       0.000       0.000       0.000       0.000       0.000       0.000       0.000       0.000    
        0.000       0.000       0.000       0.000       0.000       0.000       0.000       0.000      3.6000E-02  3.6000E-02
        0.000       0.000       0.000       0.000       0.000       0.000       0.000       0.000      4.5000E-02  4.5000E-02
       4.5000E-02  4.5000E-02  4.5000E-02  4.5000E-02  9.0000E-02  9.0000E-02  9.0000E-02  4.5000E-02  4.5000E-02  4.5000E-02
       4.5000E-02  4.5000E-02  4.5000E-02  4.5000E-02  4.5000E-02   0.000       0.000       0.000       0.000       0.000    
        0.000    
  10    0.000       0.000       0.000       0.000       0.000       0.000       0.000       0.000       0.000       0.000    
        0.000       0.000       0.000       0.000       0.000       0.000       0.000       0.000       0.000       0.000    
        0.000       0.000       0.000       0.000       0.000       0.000       0.000       0.000       0.000       0.000    
        0.000       0.000       0.000       0.000       0.000       0.000       0.000       0.000       0.000       0.000    
        0.000       0.000       0.000       0.000       0.000       0.000       0.000      3.6000E-02  3.6000E-02  3.6000E-02
       3.6000E-02  3.6000E-02  3.6000E-02   0.000       0.000       0.000      3.6000E-02  4.5000E-02  4.5000E-02  4.5000E-02
       4.5000E-02  4.5000E-02  4.5000E-02  4.5000E-02  9.0000E-02  9.0000E-02  9.0000E-02  4.5000E-02  4.5000E-02  4.5000E-02
       4.5000E-02  4.5000E-02  4.5000E-02  4.5000E-02  4.5000E-02  4.5000E-02   0.000       0.000       0.000       0.000    
        0.000    
  11    0.000       0.000       0.000       0.000       0.000       0.000       0.000       0.000       0.000       0.000    
        0.000       0.000       0.000       0.000       0.000       0.000       0.000       0.000       0.000       0.000    
        0.000       0.000       0.000       0.000       0.000       0.000       0.000       0.000       0.000       0.000    
        0.000       0.000       0.000       0.000       0.000       0.000       0.000       0.000       0.000       0.000    
        0.000       0.000       0.000       0.000       0.000       0.000      3.6000E-02  3.6000E-02  3.6000E-02  3.6000E-02
       3.6000E-02  3.6000E-02  3.6000E-02  3.6000E-02  3.6000E-02  3.6000E-02  3.6000E-02  4.5000E-02  4.5000E-02  4.5000E-02
       4.5000E-02  4.5000E-02  4.5000E-02  4.5000E-02  9.0000E-02  9.0000E-02  9.0000E-02  4.5000E-02  4.5000E-02  4.5000E-02
       4.5000E-02  4.5000E-02  4.5000E-02  4.5000E-02  4.5000E-02  4.5000E-02   0.000       0.000       0.000       0.000    
        0.000    
  12    0.000       0.000       0.000       0.000       0.000       0.000       0.000       0.000       0.000       0.000    
        0.000       0.000       0.000       0.000       0.000       0.000       0.000       0.000       0.000       0.000    
        0.000       0.000       0.000       0.000       0.000       0.000       0.000       0.000       0.000       0.000    
        0.000       0.000       0.000       0.000       0.000       0.000       0.000       0.000       0.000       0.000    
        0.000       0.000       0.000       0.000       0.000       0.000      3.6000E-02  3.6000E-02  3.6000E-02  4.5000E-02
       4.5000E-02  4.5000E-02  4.5000E-02  4.5000E-02  4.5000E-02  4.5000E-02  4.5000E-02  4.5000E-02  4.5000E-02  4.5000E-02
       4.5000E-02  4.5000E-02  4.5000E-02  4.5000E-02  9.0000E-02  9.0000E-02  9.0000E-02  4.5000E-02  4.5000E-02  4.5000E-02
       4.5000E-02  4.5000E-02  4.5000E-02  4.5000E-02  4.5000E-02  4.5000E-02  4.5000E-02   0.000       0.000       0.000    
        0.000    
  13    0.000       0.000       0.000       0.000       0.000       0.000       0.000       0.000       0.000       0.000    
        0.000       0.000       0.000       0.000       0.000       0.000       0.000       0.000       0.000       0.000    
        0.000       0.000       0.000       0.000       0.000       0.000       0.000       0.000       0.000       0.000    
        0.000       0.000       0.000       0.000       0.000       0.000       0.000       0.000       0.000       0.000    
        0.000       0.000       0.000       0.000      3.6000E-02  3.6000E-02  3.6000E-02  3.6000E-02  3.6000E-02  4.5000E-02
       4.5000E-02  4.5000E-02  4.5000E-02  4.5000E-02  4.5000E-02  4.5000E-02  4.5000E-02  4.5000E-02  4.5000E-02  4.5000E-02
       4.5000E-02  4.5000E-02  4.5000E-02  4.5000E-02  9.0000E-02  9.0000E-02  9.0000E-02  4.5000E-02  4.5000E-02  4.5000E-02
       4.5000E-02  4.5000E-02  4.5000E-02  4.5000E-02  4.5000E-02  4.5000E-02  4.5000E-02  4.5000E-02   0.000       0.000    
        0.000    
  14    0.000       0.000       0.000       0.000       0.000       0.000       0.000       0.000       0.000       0.000    
        0.000       0.000       0.000       0.000       0.000       0.000       0.000       0.000       0.000       0.000    
        0.000       0.000       0.000       0.000       0.000       0.000       0.000       0.000       0.000       0.000    
        0.000       0.000       0.000       0.000       0.000       0.000       0.000       0.000       0.000       0.000    
        0.000      3.6000E-02  3.6000E-02  3.6000E-02  3.6000E-02  3.6000E-02  3.6000E-02  3.6000E-02  3.6000E-02  4.5000E-02
       4.5000E-02  4.5000E-02  4.5000E-02  4.5000E-02  4.5000E-02  4.5000E-02  4.5000E-02  4.5000E-02  4.5000E-02  4.5000E-02
       4.5000E-02  4.5000E-02  4.5000E-02  4.5000E-02  9.0000E-02  9.0000E-02  9.0000E-02  4.5000E-02  4.5000E-02  4.5000E-02
       4.5000E-02  4.5000E-02  4.5000E-02  4.5000E-02  4.5000E-02  4.5000E-02  4.5000E-02  4.5000E-02  4.5000E-02   0.000    
        0.000    
  15    0.000       0.000       0.000       0.000       0.000       0.000       0.000       0.000       0.000       0.000    
        0.000       0.000       0.000       0.000       0.000       0.000       0.000       0.000       0.000       0.000    
        0.000       0.000       0.000       0.000       0.000       0.000       0.000       0.000       0.000       0.000    
        0.000       0.000       0.000       0.000       0.000       0.000       0.000       0.000       0.000       0.000    
       1.8000E-02  1.8000E-02  3.6000E-02  3.6000E-02  3.6000E-02  3.6000E-02  3.6000E-02  3.6000E-02  3.6000E-02  3.6000E-02
       3.6000E-02  4.5000E-02  4.5000E-02  4.5000E-02  4.5000E-02  4.5000E-02  4.5000E-02  4.5000E-02  4.5000E-02  4.5000E-02
       4.5000E-02  4.5000E-02  4.5000E-02  4.5000E-02  9.0000E-02  9.0000E-02  9.0000E-02  9.0000E-02  4.5000E-02  4.5000E-02
       4.5000E-02  4.5000E-02  4.5000E-02  4.5000E-02  4.5000E-02  4.5000E-02  4.5000E-02  4.5000E-02  4.5000E-02  4.5000E-02
        0.000    
  16    0.000       0.000       0.000       0.000       0.000       0.000       0.000       0.000       0.000       0.000    
        0.000       0.000       0.000       0.000       0.000       0.000       0.000       0.000       0.000       0.000    
        0.000       0.000       0.000       0.000       0.000       0.000       0.000       0.000       0.000       0.000    
        0.000       0.000       0.000       0.000       0.000       0.000       0.000       0.000       0.000      1.8000E-02
       1.8000E-02  1.8000E-02  3.6000E-02  3.6000E-02  3.6000E-02  3.6000E-02  3.6000E-02  3.6000E-02  3.6000E-02  3.6000E-02
       3.6000E-02  3.6000E-02  4.5000E-02  4.5000E-02  4.5000E-02  4.5000E-02  4.5000E-02  4.5000E-02  4.5000E-02  4.5000E-02
       4.5000E-02  4.5000E-02  4.5000E-02  4.5000E-02  9.0000E-02  9.0000E-02  9.0000E-02  9.0000E-02  9.0000E-02  4.5000E-02
       4.5000E-02  4.5000E-02  4.5000E-02  4.5000E-02  4.5000E-02  4.5000E-02  4.5000E-02  4.5000E-02  4.5000E-02  4.5000E-02
        0.000    
  17    0.000       0.000       0.000       0.000       0.000       0.000       0.000       0.000       0.000       0.000    
        0.000       0.000       0.000       0.000       0.000       0.000       0.000       0.000       0.000       0.000    
        0.000       0.000       0.000       0.000       0.000       0.000       0.000       0.000       0.000       0.000    
        0.000       0.000       0.000       0.000       0.000       0.000       0.000       0.000       0.000      1.8000E-02
       1.8000E-02  1.8000E-02  1.8000E-02  3.6000E-02  3.6000E-02  3.6000E-02  3.6000E-02  3.6000E-02  3.6000E-02  3.6000E-02
       3.6000E-02  3.6000E-02  4.5000E-02  4.5000E-02  4.5000E-02  4.5000E-02  4.5000E-02  4.5000E-02  4.5000E-02  4.5000E-02
       4.5000E-02  4.5000E-02  4.5000E-02  4.5000E-02  9.0000E-02  9.0000E-02  9.0000E-02  9.0000E-02  9.0000E-02  9.0000E-02
       9.0000E-02  9.0000E-02  9.0000E-02  9.0000E-02  9.0000E-02  9.0000E-02  4.5000E-02  4.5000E-02  4.5000E-02  4.5000E-02
        0.000    
  18    0.000       0.000       0.000       0.000       0.000       0.000       0.000       0.000       0.000       0.000    
        0.000       0.000       0.000       0.000       0.000       0.000       0.000       0.000       0.000       0.000    
        0.000       0.000       0.000       0.000       0.000       0.000       0.000       0.000       0.000       0.000    
        0.000       0.000       0.000       0.000       0.000       0.000       0.000       0.000       0.000      1.8000E-02
       1.8000E-02  1.8000E-02  1.8000E-02  3.6000E-02  3.6000E-02  3.6000E-02  3.6000E-02  3.6000E-02  3.6000E-02  3.6000E-02
       3.6000E-02  3.6000E-02  4.5000E-02  4.5000E-02  4.5000E-02  4.5000E-02  4.5000E-02  4.5000E-02  4.5000E-02  4.5000E-02
       4.5000E-02  4.5000E-02  4.5000E-02  4.5000E-02  9.0000E-02  9.0000E-02  9.0000E-02  9.0000E-02  9.0000E-02  9.0000E-02
       9.0000E-02  9.0000E-02  9.0000E-02  9.0000E-02  9.0000E-02  9.0000E-02  9.0000E-02  4.5000E-02  4.5000E-02  4.5000E-02
        0.000    
  19    0.000       0.000       0.000       0.000       0.000       0.000       0.000       0.000       0.000       0.000    
        0.000       0.000       0.000       0.000       0.000       0.000       0.000       0.000       0.000       0.000    
        0.000       0.000       0.000       0.000       0.000       0.000       0.000       0.000       0.000       0.000    
        0.000       0.000       0.000       0.000      1.8000E-02  1.8000E-02  1.8000E-02  1.8000E-02  1.8000E-02  1.8000E-02
       1.8000E-02  1.8000E-02  3.6000E-02  3.6000E-02  3.6000E-02  3.6000E-02  3.6000E-02  3.6000E-02  3.6000E-02  3.6000E-02
       3.6000E-02  3.6000E-02  4.5000E-02  4.5000E-02  4.5000E-02  4.5000E-02  4.5000E-02  4.5000E-02  4.5000E-02  4.5000E-02
       4.5000E-02  4.5000E-02  4.5000E-02  4.5000E-02  9.0000E-02  9.0000E-02  9.0000E-02  9.0000E-02  9.0000E-02  9.0000E-02
       9.0000E-02  9.0000E-02  9.0000E-02  9.0000E-02  9.0000E-02  9.0000E-02  9.0000E-02  4.5000E-02  4.5000E-02  4.5000E-02
       2.7000E-02
  20    0.000       0.000       0.000       0.000       0.000       0.000       0.000       0.000       0.000       0.000    
        0.000       0.000       0.000       0.000       0.000       0.000       0.000       0.000       0.000       0.000    
        0.000       0.000       0.000       0.000       0.000       0.000       0.000       0.000       0.000       0.000    
        0.000       0.000      1.8000E-02  1.8000E-02  1.8000E-02  1.8000E-02  1.8000E-02  1.8000E-02  1.8000E-02  1.8000E-02
       1.8000E-02  3.6000E-02  3.6000E-02  3.6000E-02  3.6000E-02  3.6000E-02  3.6000E-02  3.6000E-02  3.6000E-02  3.6000E-02
       3.6000E-02  3.6000E-02  4.5000E-02  4.5000E-02  4.5000E-02  4.5000E-02  4.5000E-02  4.5000E-02  4.5000E-02  4.5000E-02
       4.5000E-02  4.5000E-02  4.5000E-02  4.5000E-02  9.0000E-02  9.0000E-02  9.0000E-02  9.0000E-02  9.0000E-02  9.0000E-02
       9.0000E-02  9.0000E-02  9.0000E-02  9.0000E-02  9.0000E-02  9.0000E-02  9.0000E-02  4.5000E-02  4.5000E-02  4.5000E-02
       2.7000E-02
  21    0.000       0.000       0.000       0.000       0.000       0.000       0.000       0.000       0.000       0.000    
        0.000       0.000       0.000       0.000       0.000       0.000       0.000       0.000       0.000       0.000    
        0.000       0.000       0.000       0.000       0.000       0.000       0.000       0.000       0.000      1.8000E-02
       1.8000E-02  1.8000E-02  1.8000E-02  1.8000E-02  1.8000E-02  1.8000E-02  1.8000E-02  1.8000E-02  1.8000E-02  3.6000E-02
       3.6000E-02  3.6000E-02  3.6000E-02  3.6000E-02  3.6000E-02  3.6000E-02  3.6000E-02  3.6000E-02  3.6000E-02  3.6000E-02
       3.6000E-02  3.6000E-02  4.5000E-02  4.5000E-02  9.0000E-02  4.5000E-02  4.5000E-02  4.5000E-02  4.5000E-02  4.5000E-02
       4.5000E-02  4.5000E-02  4.5000E-02  4.5000E-02  4.5000E-02  9.0000E-02  9.0000E-02  9.0000E-02  9.0000E-02  9.0000E-02
       9.0000E-02  9.0000E-02  9.0000E-02  9.0000E-02  9.0000E-02  9.0000E-02  9.0000E-02  4.5000E-02  4.5000E-02  4.5000E-02
       2.7000E-02
  22    0.000       0.000       0.000       0.000       0.000       0.000       0.000       0.000       0.000       0.000    
        0.000       0.000       0.000       0.000       0.000       0.000       0.000       0.000       0.000       0.000    
        0.000       0.000       0.000       0.000       0.000       0.000      1.8000E-02  1.8000E-02  1.8000E-02  1.8000E-02
       1.8000E-02  1.8000E-02  1.8000E-02  1.8000E-02  1.8000E-02  1.8000E-02  1.8000E-02  1.8000E-02  3.6000E-02  3.6000E-02
       3.6000E-02  3.6000E-02  3.6000E-02  3.6000E-02  3.6000E-02  3.6000E-02  3.6000E-02  3.6000E-02  3.6000E-02  3.6000E-02
       3.6000E-02  4.5000E-02  4.5000E-02  4.5000E-02  9.0000E-02  4.5000E-02  4.5000E-02  4.5000E-02  4.5000E-02  4.5000E-02
       4.5000E-02  4.5000E-02  4.5000E-02  4.5000E-02  4.5000E-02  4.5000E-02  9.0000E-02  9.0000E-02  9.0000E-02  9.0000E-02
       9.0000E-02  9.0000E-02  9.0000E-02  9.0000E-02  9.0000E-02  9.0000E-02  9.0000E-02  4.5000E-02  4.5000E-02  4.5000E-02
       2.7000E-02
  23    0.000       0.000       0.000       0.000       0.000       0.000       0.000       0.000       0.000       0.000    
        0.000       0.000       0.000       0.000       0.000       0.000       0.000       0.000       0.000       0.000    
        0.000       0.000       0.000       0.000      1.8000E-02  1.8000E-02  1.8000E-02  1.8000E-02  1.8000E-02  1.8000E-02
       1.8000E-02  1.8000E-02  1.8000E-02  1.8000E-02  1.8000E-02  3.6000E-02  3.6000E-02  3.6000E-02  3.6000E-02  3.6000E-02
       3.6000E-02  3.6000E-02  3.6000E-02  3.6000E-02  3.6000E-02  3.6000E-02  3.6000E-02  3.6000E-02  4.5000E-02  4.5000E-02
       4.5000E-02  4.5000E-02  4.5000E-02  4.5000E-02  9.0000E-02  4.5000E-02  4.5000E-02  4.5000E-02  4.5000E-02  4.5000E-02
       4.5000E-02  4.5000E-02  4.5000E-02  4.5000E-02  4.5000E-02  4.5000E-02  4.5000E-02  4.5000E-02  9.0000E-02  9.0000E-02
       9.0000E-02  9.0000E-02  9.0000E-02  9.0000E-02  9.0000E-02  9.0000E-02  9.0000E-02  4.5000E-02  4.5000E-02  4.5000E-02
       2.7000E-02
  24    0.000       0.000       0.000       0.000       0.000       0.000       0.000       0.000       0.000       0.000    
        0.000       0.000       0.000       0.000       0.000       0.000       0.000       0.000       0.000       0.000    
        0.000       0.000      1.8000E-02  1.8000E-02  1.8000E-02  1.8000E-02  1.8000E-02  1.8000E-02  1.8000E-02  3.6000E-02
       3.6000E-02  3.6000E-02  3.6000E-02  3.6000E-02  3.6000E-02  3.6000E-02  3.6000E-02  3.6000E-02  3.6000E-02  3.6000E-02
       3.6000E-02  3.6000E-02  3.6000E-02  3.6000E-02  4.5000E-02  4.5000E-02  4.5000E-02  4.5000E-02  4.5000E-02  4.5000E-02
       4.5000E-02  4.5000E-02  4.5000E-02  4.5000E-02  9.0000E-02  4.5000E-02  4.5000E-02  4.5000E-02  4.5000E-02  4.5000E-02
       4.5000E-02  4.5000E-02  4.5000E-02  4.5000E-02  4.5000E-02  4.5000E-02  4.5000E-02  4.5000E-02  4.5000E-02  9.0000E-02
       9.0000E-02  9.0000E-02  9.0000E-02  9.0000E-02  9.0000E-02  9.0000E-02  4.5000E-02  4.5000E-02  4.5000E-02  4.5000E-02
       2.7000E-02
  25    0.000       0.000       0.000       0.000       0.000       0.000       0.000       0.000       0.000       0.000    
        0.000       0.000       0.000       0.000       0.000       0.000       0.000       0.000       0.000       0.000    
       1.8000E-02  1.8000E-02  1.8000E-02  1.8000E-02  1.8000E-02  1.8000E-02  1.8000E-02  3.6000E-02  3.6000E-02  3.6000E-02
       3.6000E-02  3.6000E-02  3.6000E-02  3.6000E-02  3.6000E-02  3.6000E-02  3.6000E-02  3.6000E-02  3.6000E-02  3.6000E-02
       3.6000E-02  3.6000E-02  3.6000E-02  4.5000E-02  4.5000E-02  4.5000E-02  4.5000E-02  4.5000E-02  4.5000E-02  4.5000E-02
       4.5000E-02  4.5000E-02  4.5000E-02  4.5000E-02  9.0000E-02  9.0000E-02  4.5000E-02  4.5000E-02  4.5000E-02  4.5000E-02
       4.5000E-02  4.5000E-02  4.5000E-02  4.5000E-02  4.5000E-02  4.5000E-02  4.5000E-02  4.5000E-02  4.5000E-02  9.0000E-02
       9.0000E-02  9.0000E-02  9.0000E-02  9.0000E-02  9.0000E-02  4.5000E-02  4.5000E-02  4.5000E-02  4.5000E-02  4.5000E-02
        0.000    
  26    0.000       0.000       0.000       0.000       0.000       0.000       0.000       0.000       0.000       0.000    
        0.000       0.000       0.000       0.000       0.000       0.000       0.000       0.000      1.8000E-02  1.8000E-02
       1.8000E-02  1.8000E-02  1.8000E-02  1.8000E-02  1.8000E-02  1.8000E-02  1.8000E-02  3.6000E-02  3.6000E-02  3.6000E-02
       3.6000E-02  3.6000E-02  3.6000E-02  3.6000E-02  3.6000E-02  3.6000E-02  3.6000E-02  3.6000E-02  3.6000E-02  3.6000E-02
       3.6000E-02  3.6000E-02  4.5000E-02  4.5000E-02  4.5000E-02  4.5000E-02  4.5000E-02  4.5000E-02  4.5000E-02  4.5000E-02
       4.5000E-02  4.5000E-02  4.5000E-02  4.5000E-02  9.0000E-02  9.0000E-02  4.5000E-02  4.5000E-02  4.5000E-02  4.5000E-02
       4.5000E-02  4.5000E-02  4.5000E-02  4.5000E-02  4.5000E-02  4.5000E-02  4.5000E-02  4.5000E-02  4.5000E-02  4.5000E-02
       9.0000E-02  9.0000E-02  9.0000E-02  9.0000E-02  9.0000E-02  4.5000E-02  4.5000E-02  4.5000E-02  4.5000E-02   0.000    
        0.000    
  27    0.000       0.000       0.000       0.000       0.000       0.000       0.000       0.000       0.000       0.000    
        0.000       0.000       0.000       0.000       0.000       0.000       0.000      1.8000E-02  1.8000E-02  1.8000E-02
       1.8000E-02  1.8000E-02  3.6000E-02  3.6000E-02  3.6000E-02  3.6000E-02  3.6000E-02  3.6000E-02  3.6000E-02  3.6000E-02
       3.6000E-02  3.6000E-02  3.6000E-02  3.6000E-02  3.6000E-02  3.6000E-02  3.6000E-02  3.6000E-02  3.6000E-02  3.6000E-02
       3.6000E-02  4.5000E-02  4.5000E-02  4.5000E-02  4.5000E-02  4.5000E-02  4.5000E-02  4.5000E-02  4.5000E-02  4.5000E-02
       4.5000E-02  4.5000E-02  4.5000E-02  4.5000E-02  4.5000E-02  9.0000E-02  4.5000E-02  4.5000E-02  4.5000E-02  4.5000E-02
       4.5000E-02  4.5000E-02  4.5000E-02  4.5000E-02  4.5000E-02  4.5000E-02  4.5000E-02  4.5000E-02  4.5000E-02  4.5000E-02
       4.5000E-02  9.0000E-02  9.0000E-02  9.0000E-02  9.0000E-02  4.5000E-02   0.000       0.000       0.000       0.000    
        0.000    
  28    0.000       0.000       0.000       0.000       0.000       0.000       0.000       0.000       0.000       0.000    
        0.000       0.000       0.000       0.000       0.000       0.000      1.8000E-02  1.8000E-02  1.8000E-02  1.8000E-02
       1.8000E-02  3.6000E-02  3.6000E-02  3.6000E-02  3.6000E-02  3.6000E-02  3.6000E-02  3.6000E-02  3.6000E-02  9.0000E-02
       9.0000E-02  9.0000E-02  9.0000E-02  3.6000E-02  3.6000E-02  3.6000E-02  3.6000E-02  3.6000E-02  3.6000E-02  4.5000E-02
       4.5000E-02  4.5000E-02  4.5000E-02  4.5000E-02  4.5000E-02  4.5000E-02  4.5000E-02  4.5000E-02  4.5000E-02  4.5000E-02
       4.5000E-02  4.5000E-02  4.5000E-02  4.5000E-02  4.5000E-02  9.0000E-02  9.0000E-02  4.5000E-02  4.5000E-02  4.5000E-02
       4.5000E-02  4.5000E-02  4.5000E-02  4.5000E-02  4.5000E-02  4.5000E-02  4.5000E-02  4.5000E-02  4.5000E-02  4.5000E-02
       4.5000E-02  9.0000E-02  9.0000E-02  9.0000E-02  9.0000E-02  4.5000E-02   0.000       0.000       0.000       0.000    
        0.000    
  29    0.000       0.000       0.000       0.000       0.000       0.000       0.000       0.000       0.000       0.000    
        0.000      1.8000E-02  1.8000E-02  3.6000E-02  3.6000E-02  3.6000E-02  3.6000E-02  3.6000E-02  3.6000E-02  3.6000E-02
       3.6000E-02  3.6000E-02  3.6000E-02  3.6000E-02  3.6000E-02  3.6000E-02  3.6000E-02  3.6000E-02  3.6000E-02  9.0000E-02
       9.0000E-02  9.0000E-02  9.0000E-02  9.0000E-02  9.0000E-02  3.6000E-02  3.6000E-02  3.6000E-02  3.6000E-02  4.5000E-02
       4.5000E-02  9.0000E-02  9.0000E-02  0.2700      0.2700      0.2700      0.2700      4.5000E-02  4.5000E-02  4.5000E-02
       4.5000E-02  4.5000E-02  4.5000E-02  4.5000E-02  4.5000E-02  9.0000E-02  9.0000E-02  4.5000E-02  4.5000E-02  4.5000E-02
       4.5000E-02  4.5000E-02  4.5000E-02  4.5000E-02  4.5000E-02  4.5000E-02  4.5000E-02  4.5000E-02  4.5000E-02  4.5000E-02
       4.5000E-02  9.0000E-02  9.0000E-02  9.0000E-02  9.0000E-02  4.5000E-02   0.000       0.000       0.000       0.000    
        0.000    
  30    0.000       0.000       0.000       0.000       0.000       0.000       0.000       0.000       0.000       0.000    
       1.8000E-02  1.8000E-02  3.6000E-02  3.6000E-02  3.6000E-02  3.6000E-02  9.0000E-02  9.0000E-02  9.0000E-02  9.0000E-02
       9.0000E-02  9.0000E-02  9.0000E-02  9.0000E-02  9.0000E-02  9.0000E-02  9.0000E-02  9.0000E-02  9.0000E-02  9.0000E-02
       9.0000E-02  9.0000E-02  9.0000E-02  9.0000E-02  9.0000E-02  9.0000E-02  9.0000E-02  9.0000E-02  9.0000E-02  9.0000E-02
       9.0000E-02  0.2700      0.2700      0.2700      0.2700      0.2700      0.2700      0.2700      9.0000E-02  4.5000E-02
       4.5000E-02  4.5000E-02  4.5000E-02  4.5000E-02  4.5000E-02  9.0000E-02  9.0000E-02  4.5000E-02  4.5000E-02  4.5000E-02
       4.5000E-02  4.5000E-02  4.5000E-02  4.5000E-02  4.5000E-02  4.5000E-02  4.5000E-02  4.5000E-02  4.5000E-02  4.5000E-02
       4.5000E-02  9.0000E-02  9.0000E-02  0.2700      9.0000E-02  4.5000E-02   0.000       0.000       0.000       0.000    
        0.000    
  31    0.000       0.000       0.000       0.000       0.000       0.000       0.000       0.000       0.000      1.8000E-02
       1.8000E-02  1.8000E-02  3.6000E-02  3.6000E-02  3.6000E-02  3.6000E-02  9.0000E-02  9.0000E-02  9.0000E-02  9.0000E-02
       9.0000E-02  9.0000E-02  9.0000E-02  9.0000E-02  9.0000E-02  9.0000E-02  9.0000E-02  0.2700      0.2700      0.2700    
       0.2700      0.2700      0.2700      0.2700      0.2700      0.2700      0.2700      0.2700      0.2700      0.2700    
       0.2700      0.2700      0.2700      0.2700      0.2700      0.2700      0.2700      0.2700      9.0000E-02  0.2700    
       9.0000E-02  4.5000E-02  4.5000E-02  4.5000E-02  4.5000E-02  9.0000E-02  9.0000E-02  4.5000E-02  4.5000E-02  4.5000E-02
       4.5000E-02  4.5000E-02  4.5000E-02  4.5000E-02  4.5000E-02  4.5000E-02  4.5000E-02  4.5000E-02  4.5000E-02  4.5000E-02
       4.5000E-02  9.0000E-02  9.0000E-02  0.2700      9.0000E-02  4.5000E-02   0.000       0.000       0.000       0.000    
        0.000    
  32    0.000       0.000       0.000       0.000       0.000       0.000       0.000       0.000      1.8000E-02  1.8000E-02
       1.8000E-02  1.8000E-02  3.6000E-02  3.6000E-02  3.6000E-02  3.6000E-02  3.6000E-02  3.6000E-02  3.6000E-02  3.6000E-02
       3.6000E-02  3.6000E-02  3.6000E-02  3.6000E-02  3.6000E-02  3.6000E-02  4.5000E-02  4.5000E-02  4.5000E-02  4.5000E-02
       4.5000E-02  4.5000E-02  9.0000E-02  9.0000E-02  0.2700      0.2700      0.2700      0.2700      0.2700      0.2700    
       0.2700      0.2700      9.0000E-02  9.0000E-02  9.0000E-02  9.0000E-02  9.0000E-02  0.2700      9.0000E-02  0.2700    
       0.2700      9.0000E-02  4.5000E-02  4.5000E-02  4.5000E-02  9.0000E-02  9.0000E-02  4.5000E-02  4.5000E-02  4.5000E-02
       4.5000E-02  4.5000E-02  4.5000E-02  4.5000E-02  4.5000E-02  4.5000E-02  4.5000E-02  4.5000E-02  4.5000E-02  4.5000E-02
       4.5000E-02  9.0000E-02  9.0000E-02  0.2700      9.0000E-02  4.5000E-02   0.000       0.000       0.000       0.000    
        0.000    
  33    0.000       0.000       0.000       0.000       0.000       0.000       0.000      1.8000E-02  1.8000E-02  1.8000E-02
       1.8000E-02  1.8000E-02  3.6000E-02  3.6000E-02  3.6000E-02  3.6000E-02  3.6000E-02  3.6000E-02  3.6000E-02  3.6000E-02
       3.6000E-02  3.6000E-02  3.6000E-02  3.6000E-02  3.6000E-02  4.5000E-02  4.5000E-02  4.5000E-02  4.5000E-02  4.5000E-02
       4.5000E-02  4.5000E-02  9.0000E-02  0.2700      0.2700      0.2700      0.2700      0.2700      0.2700      0.2700    
       0.2700      4.5000E-02  4.5000E-02  4.5000E-02  4.5000E-02  4.5000E-02  9.0000E-02  9.0000E-02  0.2700      0.2700    
       0.2700      0.2700      9.0000E-02  9.0000E-02  9.0000E-02  9.0000E-02  9.0000E-02  9.0000E-02  9.0000E-02  9.0000E-02
       4.5000E-02  4.5000E-02  4.5000E-02  4.5000E-02  4.5000E-02  4.5000E-02  4.5000E-02  4.5000E-02  4.5000E-02  4.5000E-02
       4.5000E-02  9.0000E-02  9.0000E-02  0.2700      9.0000E-02  4.5000E-02   0.000       0.000       0.000       0.000    
        0.000    
  34    0.000       0.000       0.000       0.000       0.000       0.000      1.8000E-02  1.8000E-02  1.8000E-02  1.8000E-02
       1.8000E-02  3.6000E-02  3.6000E-02  3.6000E-02  3.6000E-02  3.6000E-02  3.6000E-02  3.6000E-02  3.6000E-02  3.6000E-02
       3.6000E-02  3.6000E-02  4.5000E-02  4.5000E-02  4.5000E-02  4.5000E-02  4.5000E-02  4.5000E-02  4.5000E-02  4.5000E-02
       4.5000E-02  4.5000E-02  0.2700      0.2700      9.0000E-02  9.0000E-02  0.2700      0.2700      0.2700      0.2700    
       0.2700      4.5000E-02  4.5000E-02  4.5000E-02  4.5000E-02  4.5000E-02  9.0000E-02  9.0000E-02  0.2700      0.2700    
       0.2700      0.2700      0.2700      0.2700      0.2700      0.2700      0.2700      0.2700      0.2700      0.2700    
       4.5000E-02  4.5000E-02  4.5000E-02  4.5000E-02  4.5000E-02  4.5000E-02  4.5000E-02  4.5000E-02  4.5000E-02  4.5000E-02
       4.5000E-02  9.0000E-02  9.0000E-02  0.2700      9.0000E-02  4.5000E-02   0.000       0.000       0.000       0.000    
        0.000    
  35    0.000       0.000       0.000       0.000       0.000      1.8000E-02  1.8000E-02  1.8000E-02  1.8000E-02  1.8000E-02
       1.8000E-02  3.6000E-02  3.6000E-02  3.6000E-02  3.6000E-02  3.6000E-02  3.6000E-02  3.6000E-02  4.5000E-02  4.5000E-02
       4.5000E-02  4.5000E-02  4.5000E-02  4.5000E-02  4.5000E-02  0.2700      0.2700      4.5000E-02  4.5000E-02  4.5000E-02
       4.5000E-02  0.2700      0.2700      9.0000E-02  9.0000E-02  9.0000E-02  0.2700      0.2700      0.2700      0.2700    
       0.2700      4.5000E-02  4.5000E-02  4.5000E-02  4.5000E-02  4.5000E-02  9.0000E-02  0.2700      0.2700      0.2700    
       0.2700      0.2700      0.2700      0.2700      0.2700      0.2700      0.2700      0.2700      0.2700      0.2700    
       4.5000E-02  4.5000E-02  4.5000E-02  4.5000E-02  4.5000E-02  4.5000E-02  4.5000E-02  4.5000E-02  4.5000E-02  4.5000E-02
       4.5000E-02  9.0000E-02  9.0000E-02  0.2700      9.0000E-02  4.5000E-02   0.000       0.000       0.000       0.000    
        0.000    
  36    0.000       0.000       0.000       0.000       0.000      1.8000E-02  1.8000E-02  1.8000E-02  1.8000E-02  1.8000E-02
       3.6000E-02  3.6000E-02  3.6000E-02  3.6000E-02  9.0000E-02  9.0000E-02  9.0000E-02  9.0000E-02  9.0000E-02  9.0000E-02
       9.0000E-02  9.0000E-02  9.0000E-02  9.0000E-02  0.2700      0.2700      0.2700      0.2700      0.2700      0.2700    
       0.2700      0.2700      9.0000E-02  9.0000E-02  9.0000E-02  9.0000E-02  0.2700      0.2700      0.2700      0.2700    
       0.2700      4.5000E-02  4.5000E-02  4.5000E-02  4.5000E-02  4.5000E-02  9.0000E-02  0.2700      0.2700      4.5000E-02
       4.5000E-02  0.2700      0.2700      0.2700      0.2700      0.2700      0.2700      0.2700      0.2700      0.2700    
       9.0000E-02  9.0000E-02  9.0000E-02  4.5000E-02  4.5000E-02  4.5000E-02  4.5000E-02  4.5000E-02  4.5000E-02  4.5000E-02
       4.5000E-02  9.0000E-02  9.0000E-02  9.0000E-02  9.0000E-02  4.5000E-02   0.000       0.000       0.000       0.000    
        0.000    
  37    0.000       0.000       0.000       0.000       0.000      1.8000E-02  1.8000E-02  1.8000E-02  1.8000E-02  3.6000E-02
       3.6000E-02  3.6000E-02  3.6000E-02  9.0000E-02  9.0000E-02  9.0000E-02  9.0000E-02  9.0000E-02  9.0000E-02  9.0000E-02
       9.0000E-02  9.0000E-02  0.2700      0.2700      0.2700      9.0000E-02  9.0000E-02  9.0000E-02  9.0000E-02  9.0000E-02
       9.0000E-02  9.0000E-02  9.0000E-02  9.0000E-02  9.0000E-02  9.0000E-02  0.2700      0.2700      0.2700      0.2700    
       4.5000E-02  4.5000E-02  4.5000E-02  4.5000E-02  4.5000E-02  4.5000E-02  0.2700      0.2700      4.5000E-02  4.5000E-02
       4.5000E-02  9.0000E-02  9.0000E-02  9.0000E-02  9.0000E-02  0.2700      0.2700      0.2700      0.2700      0.2700    
       0.2700      9.0000E-02  9.0000E-02  9.0000E-02  4.5000E-02  4.5000E-02  9.0000E-02  9.0000E-02  4.5000E-02  4.5000E-02
       4.5000E-02  9.0000E-02  9.0000E-02  4.5000E-02  4.5000E-02  3.6000E-02   0.000       0.000       0.000       0.000    
        0.000    
  38    0.000       0.000       0.000       0.000       0.000      1.8000E-02  1.8000E-02  1.8000E-02  1.8000E-02  3.6000E-02
       3.6000E-02  3.6000E-02  3.6000E-02  9.0000E-02  9.0000E-02  9.0000E-02  0.2700      0.2700      0.2700      0.2700    
       0.2700      0.2700      0.2700      0.2700      9.0000E-02  9.0000E-02  9.0000E-02  9.0000E-02  9.0000E-02  9.0000E-02
       9.0000E-02  9.0000E-02  9.0000E-02  9.0000E-02  9.0000E-02  9.0000E-02  0.2700      0.2700      0.2700      9.0000E-02
       4.5000E-02  4.5000E-02  4.5000E-02  4.5000E-02  4.5000E-02  4.5000E-02  0.2700      0.2700      4.5000E-02  4.5000E-02
       4.5000E-02  4.5000E-02  9.0000E-02  9.0000E-02  9.0000E-02  9.0000E-02  9.0000E-02  0.2700      0.2700      0.2700    
       0.2700      0.2700      0.2700      0.2700      9.0000E-02  9.0000E-02  9.0000E-02  9.0000E-02  9.0000E-02  4.5000E-02
       4.5000E-02  9.0000E-02  9.0000E-02  4.5000E-02  4.5000E-02  3.6000E-02  1.8000E-02   0.000       0.000       0.000    
        0.000    
  39    0.000       0.000       0.000       0.000       0.000      1.8000E-02  1.8000E-02  1.8000E-02  3.6000E-02  3.6000E-02
       3.6000E-02  3.6000E-02  9.0000E-02  9.0000E-02  0.2700      0.2700      0.2700      9.0000E-02  9.0000E-02  9.0000E-02
       9.0000E-02  9.0000E-02  9.0000E-02  9.0000E-02  9.0000E-02  9.0000E-02  9.0000E-02  9.0000E-02  9.0000E-02  9.0000E-02
       9.0000E-02  9.0000E-02  9.0000E-02  9.0000E-02  9.0000E-02  9.0000E-02  0.2700      0.2700      0.2700      9.0000E-02
       4.5000E-02  4.5000E-02  4.5000E-02  4.5000E-02  4.5000E-02  4.5000E-02  0.2700      0.2700      4.5000E-02  4.5000E-02
       4.5000E-02  4.5000E-02  9.0000E-02  9.0000E-02  9.0000E-02  9.0000E-02  9.0000E-02  9.0000E-02  9.0000E-02  9.0000E-02
       0.2700      0.2700      0.2700      0.2700      0.2700      0.2700      0.2700      9.0000E-02  9.0000E-02  9.0000E-02
       9.0000E-02  9.0000E-02  9.0000E-02  4.5000E-02  4.5000E-02  3.6000E-02  1.8000E-02   0.000       0.000       0.000    
        0.000    
  40    0.000       0.000       0.000       0.000      1.8000E-02  1.8000E-02  1.8000E-02  3.6000E-02  3.6000E-02  3.6000E-02
       3.6000E-02  0.2700      0.2700      0.2700      0.2700      0.2700      9.0000E-02  9.0000E-02  9.0000E-02  9.0000E-02
       9.0000E-02  9.0000E-02  9.0000E-02  9.0000E-02  9.0000E-02  9.0000E-02  9.0000E-02  9.0000E-02  9.0000E-02  9.0000E-02
       9.0000E-02  9.0000E-02  9.0000E-02  9.0000E-02  9.0000E-02  9.0000E-02  0.2700      0.2700      0.2700      9.0000E-02
       4.5000E-02  4.5000E-02  4.5000E-02  4.5000E-02  4.5000E-02  4.5000E-02  0.2700      0.2700      4.5000E-02  4.5000E-02
       4.5000E-02  4.5000E-02  4.5000E-02  3.6000E-02  3.6000E-02  3.6000E-02  3.6000E-02  3.6000E-02  3.6000E-02  4.5000E-02
       0.2700      0.2700      0.2700      0.2700      0.2700      0.2700      0.2700      0.2700      0.2700      9.0000E-02
       9.0000E-02  9.0000E-02  9.0000E-02  4.5000E-02  4.5000E-02  3.6000E-02  1.8000E-02  1.8000E-02   0.000       0.000    
        0.000    
  41    0.000       0.000       0.000       0.000      1.8000E-02  1.8000E-02  3.6000E-02  3.6000E-02  3.6000E-02  3.6000E-02
       3.6000E-02  0.2700      0.2700      0.2700      0.2700      0.2700      9.0000E-02  4.5000E-02  4.5000E-02  4.5000E-02
       4.5000E-02  4.5000E-02  4.5000E-02  4.5000E-02  4.5000E-02  4.5000E-02  4.5000E-02  4.5000E-02  4.5000E-02  4.5000E-02
       4.5000E-02  4.5000E-02  9.0000E-02  9.0000E-02  9.0000E-02  9.0000E-02  0.2700      0.2700      0.2700      4.5000E-02
       3.6000E-02  3.6000E-02  3.6000E-02  3.6000E-02  3.6000E-02  3.6000E-02  0.2700      0.2700      4.5000E-02  4.5000E-02
       4.5000E-02  4.5000E-02  4.5000E-02  3.6000E-02  3.6000E-02  3.6000E-02  3.6000E-02  3.6000E-02  3.6000E-02  4.5000E-02
       4.5000E-02  0.2700      0.2700      0.2700      9.0000E-02  9.0000E-02  0.2700      0.2700      0.2700      0.2700    
       0.2700      0.2700      0.2700      9.0000E-02  4.5000E-02  3.6000E-02  1.8000E-02  1.8000E-02  1.8000E-02   0.000    
        0.000    
  42    0.000       0.000       0.000      1.8000E-02  1.8000E-02  1.8000E-02  3.6000E-02  3.6000E-02  3.6000E-02  0.2700    
       0.2700      0.2700      0.2700      9.0000E-02  3.6000E-02  3.6000E-02  3.6000E-02  3.6000E-02  3.6000E-02  4.5000E-02
       4.5000E-02  4.5000E-02  4.5000E-02  4.5000E-02  4.5000E-02  4.5000E-02  4.5000E-02  4.5000E-02  4.5000E-02  4.5000E-02
       4.5000E-02  4.5000E-02  9.0000E-02  9.0000E-02  9.0000E-02  9.0000E-02  0.2700      0.2700      0.2700      4.5000E-02
       3.6000E-02  3.6000E-02  3.6000E-02  3.6000E-02  3.6000E-02  3.6000E-02  0.2700      0.2700      4.5000E-02  4.5000E-02
       4.5000E-02  4.5000E-02  4.5000E-02  3.6000E-02  3.6000E-02  3.6000E-02  3.6000E-02  3.6000E-02  3.6000E-02  4.5000E-02
       4.5000E-02  0.2700      0.2700      9.0000E-02  9.0000E-02  4.5000E-02  9.0000E-02  9.0000E-02  0.2700      0.2700    
       0.2700      0.2700      0.2700      9.0000E-02  9.0000E-02  9.0000E-02  9.0000E-02  3.6000E-02  3.6000E-02   0.000    
        0.000    
  43    0.000       0.000       0.000      1.8000E-02  1.8000E-02  3.6000E-02  3.6000E-02  3.6000E-02  3.6000E-02  0.2700    
       0.2700      0.2700      9.0000E-02  3.6000E-02  3.6000E-02  3.6000E-02  3.6000E-02  3.6000E-02  3.6000E-02  3.6000E-02
       4.5000E-02  4.5000E-02  4.5000E-02  4.5000E-02  4.5000E-02  4.5000E-02  4.5000E-02  4.5000E-02  4.5000E-02  4.5000E-02
       4.5000E-02  4.5000E-02  9.0000E-02  9.0000E-02  9.0000E-02  9.0000E-02  0.2700      0.2700      0.2700      4.5000E-02
       3.6000E-02  3.6000E-02  3.6000E-02  3.6000E-02  3.6000E-02  3.6000E-02  0.2700      9.0000E-02  4.5000E-02  4.5000E-02
       1.8000E-02  1.8000E-02  1.8000E-02  1.8000E-02  1.8000E-02  1.8000E-02  1.8000E-02  3.6000E-02  3.6000E-02  4.5000E-02
       4.5000E-02  0.2700      0.2700      9.0000E-02  4.5000E-02  4.5000E-02  4.5000E-02  4.5000E-02  4.5000E-02  4.5000E-02
       4.5000E-02  0.2700      0.2700      0.2700      0.2700      0.2700      0.2700      0.2700      0.2700      0.8100    
        0.000    
  44    0.000       0.000      1.8000E-02  1.8000E-02  3.6000E-02  3.6000E-02  3.6000E-02  3.6000E-02  9.0000E-02  9.0000E-02
       9.0000E-02  9.0000E-02  3.6000E-02  3.6000E-02  3.6000E-02  3.6000E-02  3.6000E-02  3.6000E-02  3.6000E-02  3.6000E-02
       3.6000E-02  4.5000E-02  4.5000E-02  4.5000E-02  4.5000E-02  4.5000E-02  4.5000E-02  4.5000E-02  4.5000E-02  4.5000E-02
       4.5000E-02  4.5000E-02  9.0000E-02  9.0000E-02  9.0000E-02  9.0000E-02  0.2700      0.2700      0.2700      4.5000E-02
       3.6000E-02  3.6000E-02  3.6000E-02  3.6000E-02  3.6000E-02  3.6000E-02  0.2700      9.0000E-02  4.5000E-02  4.5000E-02
       1.8000E-02  1.8000E-02  1.8000E-02  1.8000E-02  1.8000E-02  1.8000E-02  1.8000E-02  3.6000E-02  3.6000E-02  4.5000E-02
       4.5000E-02  0.2700      9.0000E-02  4.5000E-02  4.5000E-02  4.5000E-02  4.5000E-02  4.5000E-02  4.5000E-02  4.5000E-02
       4.5000E-02  9.0000E-02  0.2700      0.2700      0.2700      0.2700      0.2700      0.2700      0.2700      0.8100    
        0.000    
  45    0.000      1.8000E-02  1.8000E-02  3.6000E-02  3.6000E-02  3.6000E-02  9.0000E-02  9.0000E-02  9.0000E-02  9.0000E-02
       9.0000E-02  9.0000E-02  3.6000E-02  3.6000E-02  3.6000E-02  3.6000E-02  3.6000E-02  3.6000E-02  3.6000E-02  3.6000E-02
       3.6000E-02  3.6000E-02  4.5000E-02  4.5000E-02  4.5000E-02  4.5000E-02  4.5000E-02  4.5000E-02  4.5000E-02  4.5000E-02
       4.5000E-02  4.5000E-02  9.0000E-02  9.0000E-02  9.0000E-02  9.0000E-02  0.2700      0.2700      0.2700      0.2700    
       3.6000E-02  3.6000E-02  3.6000E-02  3.6000E-02  3.6000E-02  3.6000E-02  0.2700      9.0000E-02  4.5000E-02  4.5000E-02
       1.8000E-02  1.8000E-02  1.8000E-02  1.8000E-02  1.8000E-02  1.8000E-02  1.8000E-02  3.6000E-02  3.6000E-02  4.5000E-02
       4.5000E-02  0.2700      9.0000E-02  4.5000E-02  4.5000E-02  4.5000E-02  4.5000E-02  4.5000E-02  4.5000E-02  4.5000E-02
       4.5000E-02  9.0000E-02  0.2700      0.2700      0.2700      0.2700      0.2700      0.2700      0.2700      0.8100    
        0.000    
  46    0.000      1.8000E-02  3.6000E-02  3.6000E-02  3.6000E-02  9.0000E-02  9.0000E-02  9.0000E-02  9.0000E-02  3.6000E-02
       3.6000E-02  3.6000E-02  3.6000E-02  3.6000E-02  3.6000E-02  3.6000E-02  3.6000E-02  3.6000E-02  3.6000E-02  3.6000E-02
       3.6000E-02  3.6000E-02  4.5000E-02  4.5000E-02  4.5000E-02  4.5000E-02  4.5000E-02  4.5000E-02  4.5000E-02  4.5000E-02
       4.5000E-02  4.5000E-02  9.0000E-02  9.0000E-02  9.0000E-02  0.2700      0.2700      0.2700      0.2700      0.2700    
       3.6000E-02  3.6000E-02  3.6000E-02  3.6000E-02  3.6000E-02  3.6000E-02  0.2700      0.2700      9.0000E-02  4.5000E-02
       1.8000E-02  1.8000E-02  1.8000E-02  1.8000E-02  1.8000E-02  1.8000E-02  1.8000E-02  3.6000E-02  3.6000E-02  4.5000E-02
       4.5000E-02  9.0000E-02  9.0000E-02  4.5000E-02  4.5000E-02  4.5000E-02  4.5000E-02  4.5000E-02  4.5000E-02  4.5000E-02
       4.5000E-02  9.0000E-02  9.0000E-02  0.2700      0.2700      0.2700      9.0000E-02  9.0000E-02   0.000       0.000    
        0.000    
  47   1.8000E-02  1.8000E-02  3.6000E-02  3.6000E-02  3.6000E-02  3.6000E-02  3.6000E-02  3.6000E-02  3.6000E-02  3.6000E-02
       3.6000E-02  3.6000E-02  3.6000E-02  3.6000E-02  3.6000E-02  3.6000E-02  3.6000E-02  3.6000E-02  3.6000E-02  3.6000E-02
       3.6000E-02  3.6000E-02  3.6000E-02  4.5000E-02  4.5000E-02  4.5000E-02  4.5000E-02  4.5000E-02  4.5000E-02  4.5000E-02
       4.5000E-02  4.5000E-02  9.0000E-02  9.0000E-02  9.0000E-02  0.2700      0.2700      0.2700      0.2700      0.2700    
       3.6000E-02  3.6000E-02  3.6000E-02  3.6000E-02  3.6000E-02  3.6000E-02  3.6000E-02  0.2700      9.0000E-02  4.5000E-02
       1.8000E-02  1.8000E-02  1.8000E-02  1.8000E-02  1.8000E-02  1.8000E-02  1.8000E-02  3.6000E-02  3.6000E-02  4.5000E-02
       4.5000E-02  9.0000E-02  9.0000E-02  4.5000E-02  4.5000E-02  4.5000E-02  4.5000E-02  4.5000E-02  4.5000E-02  4.5000E-02
       4.5000E-02  9.0000E-02  9.0000E-02  0.2700      0.2700      9.0000E-02  9.0000E-02  3.6000E-02   0.000       0.000    
        0.000    
  48    0.000      1.8000E-02  1.8000E-02  3.6000E-02  3.6000E-02  3.6000E-02  3.6000E-02  3.6000E-02  3.6000E-02  3.6000E-02
       3.6000E-02  3.6000E-02  3.6000E-02  3.6000E-02  3.6000E-02  3.6000E-02  3.6000E-02  3.6000E-02  3.6000E-02  3.6000E-02
       3.6000E-02  3.6000E-02  3.6000E-02  4.5000E-02  4.5000E-02  4.5000E-02  4.5000E-02  4.5000E-02  4.5000E-02  4.5000E-02
       4.5000E-02  4.5000E-02  9.0000E-02  9.0000E-02  9.0000E-02  0.2700      0.2700      0.2700      0.2700      4.5000E-02
       3.6000E-02  3.6000E-02  3.6000E-02  3.6000E-02  3.6000E-02  3.6000E-02  3.6000E-02  0.2700      0.2700      9.0000E-02
       1.8000E-02  1.8000E-02  1.8000E-02  1.8000E-02  1.8000E-02  1.8000E-02  1.8000E-02  3.6000E-02  3.6000E-02  4.5000E-02
       4.5000E-02  9.0000E-02  9.0000E-02  4.5000E-02  4.5000E-02  4.5000E-02  4.5000E-02  4.5000E-02  4.5000E-02  4.5000E-02
       4.5000E-02  9.0000E-02  0.2700      0.2700      9.0000E-02  4.5000E-02  3.6000E-02   0.000       0.000       0.000    
        0.000    
  49    0.000       0.000      1.8000E-02  1.8000E-02  1.8000E-02  1.8000E-02  1.8000E-02  1.8000E-02  1.8000E-02  1.8000E-02
       1.8000E-02  1.8000E-02  1.8000E-02  1.8000E-02  1.8000E-02  1.8000E-02  1.8000E-02  3.6000E-02  3.6000E-02  3.6000E-02
       3.6000E-02  3.6000E-02  3.6000E-02  3.6000E-02  3.6000E-02  4.5000E-02  4.5000E-02  4.5000E-02  4.5000E-02  4.5000E-02
       4.5000E-02  4.5000E-02  9.0000E-02  9.0000E-02  9.0000E-02  0.2700      0.2700      0.2700      0.2700      4.5000E-02
       3.6000E-02  3.6000E-02  3.6000E-02  3.6000E-02  3.6000E-02  3.6000E-02  3.6000E-02  0.2700      0.2700      9.0000E-02
       1.8000E-02  1.8000E-02  1.8000E-02  1.8000E-02  1.8000E-02  1.8000E-02  1.8000E-02  3.6000E-02  3.6000E-02  4.5000E-02
       4.5000E-02  9.0000E-02  9.0000E-02  4.5000E-02  4.5000E-02  4.5000E-02  4.5000E-02  4.5000E-02  4.5000E-02  4.5000E-02
       9.0000E-02  9.0000E-02  0.2700      9.0000E-02  4.5000E-02  4.5000E-02  3.6000E-02   0.000       0.000       0.000    
        0.000    
  50    0.000       0.000       0.000      1.8000E-02  1.8000E-02  1.8000E-02  1.8000E-02  1.8000E-02  1.8000E-02  1.8000E-02
       1.8000E-02  1.8000E-02  1.8000E-02  1.8000E-02  1.8000E-02  1.8000E-02  1.8000E-02  3.6000E-02  3.6000E-02  3.6000E-02
       3.6000E-02  3.6000E-02  3.6000E-02  3.6000E-02  3.6000E-02  3.6000E-02  4.5000E-02  4.5000E-02  4.5000E-02  4.5000E-02
       4.5000E-02  4.5000E-02  9.0000E-02  9.0000E-02  9.0000E-02  0.2700      0.2700      0.2700      0.2700      4.5000E-02
       3.6000E-02  3.6000E-02  3.6000E-02  3.6000E-02  3.6000E-02  3.6000E-02  3.6000E-02  0.2700      0.2700      9.0000E-02
       1.8000E-02  1.8000E-02  1.8000E-02  1.8000E-02  1.8000E-02  1.8000E-02  1.8000E-02  3.6000E-02  3.6000E-02  4.5000E-02
       4.5000E-02  9.0000E-02  9.0000E-02  4.5000E-02  4.5000E-02  4.5000E-02  4.5000E-02  4.5000E-02  4.5000E-02  4.5000E-02
       9.0000E-02  0.2700      0.2700      9.0000E-02  4.5000E-02  4.5000E-02  3.6000E-02   0.000       0.000       0.000    
        0.000    
  51    0.000       0.000       0.000       0.000       0.000       0.000       0.000      1.8000E-02  1.8000E-02  1.8000E-02
       1.8000E-02  1.8000E-02  1.8000E-02   0.000      1.8000E-02  1.8000E-02  1.8000E-02  1.8000E-02  3.6000E-02  3.6000E-02
       3.6000E-02  3.6000E-02  3.6000E-02  3.6000E-02  3.6000E-02  3.6000E-02  3.6000E-02  4.5000E-02  4.5000E-02  4.5000E-02
       4.5000E-02  4.5000E-02  9.0000E-02  9.0000E-02  9.0000E-02  0.2700      0.2700      0.2700      0.2700      4.5000E-02
       3.6000E-02  1.8000E-02  1.8000E-02  1.8000E-02  1.8000E-02  1.8000E-02  3.6000E-02  0.2700      9.0000E-02  9.0000E-02
       1.8000E-02  1.8000E-02  1.8000E-02  1.8000E-02  1.8000E-02  1.8000E-02  1.8000E-02  3.6000E-02  3.6000E-02  4.5000E-02
       4.5000E-02  9.0000E-02  9.0000E-02  4.5000E-02  4.5000E-02  4.5000E-02  4.5000E-02  4.5000E-02  4.5000E-02  4.5000E-02
       0.2700      0.2700      9.0000E-02  9.0000E-02  4.5000E-02  4.5000E-02   0.000       0.000       0.000       0.000    
        0.000    
  52    0.000       0.000       0.000       0.000       0.000       0.000       0.000       0.000       0.000       0.000    
        0.000       0.000       0.000       0.000       0.000      1.8000E-02  1.8000E-02  1.8000E-02  3.6000E-02  3.6000E-02
       3.6000E-02  3.6000E-02  3.6000E-02  3.6000E-02  3.6000E-02  3.6000E-02  3.6000E-02  3.6000E-02  4.5000E-02  4.5000E-02
       4.5000E-02  4.5000E-02  9.0000E-02  9.0000E-02  9.0000E-02  0.2700      0.2700      0.2700      4.5000E-02  4.5000E-02
       3.6000E-02  1.8000E-02  1.8000E-02  1.8000E-02  1.8000E-02  1.8000E-02  3.6000E-02  9.0000E-02  9.0000E-02  9.0000E-02
       1.8000E-02  1.8000E-02  1.8000E-02  1.8000E-02  1.8000E-02  1.8000E-02  1.8000E-02  3.6000E-02  3.6000E-02  4.5000E-02
       9.0000E-02  9.0000E-02  9.0000E-02  4.5000E-02  4.5000E-02  4.5000E-02  4.5000E-02  4.5000E-02  4.5000E-02  4.5000E-02
       0.2700      0.2700      9.0000E-02  9.0000E-02  4.5000E-02  4.5000E-02   0.000       0.000       0.000       0.000    
        0.000    
  53    0.000       0.000       0.000       0.000       0.000       0.000       0.000       0.000       0.000       0.000    
        0.000       0.000       0.000       0.000       0.000       0.000       0.000      1.8000E-02  1.8000E-02  3.6000E-02
       3.6000E-02  3.6000E-02  3.6000E-02  3.6000E-02  3.6000E-02  3.6000E-02  3.6000E-02  3.6000E-02  4.5000E-02  4.5000E-02
       4.5000E-02  4.5000E-02  9.0000E-02  9.0000E-02  9.0000E-02  0.2700      0.2700      0.2700      4.5000E-02  4.5000E-02
       3.6000E-02  1.8000E-02  1.8000E-02  1.8000E-02  1.8000E-02  1.8000E-02  3.6000E-02  9.0000E-02  9.0000E-02  9.0000E-02
       1.8000E-02  1.8000E-02  1.8000E-02  1.8000E-02  1.8000E-02  1.8000E-02  1.8000E-02  3.6000E-02  3.6000E-02  4.5000E-02
       9.0000E-02  9.0000E-02  9.0000E-02  4.5000E-02  4.5000E-02  4.5000E-02  4.5000E-02  4.5000E-02  4.5000E-02  4.5000E-02
       0.2700      0.2700      9.0000E-02  9.0000E-02  4.5000E-02  4.5000E-02   0.000       0.000       0.000       0.000    
        0.000    
  54    0.000       0.000       0.000       0.000       0.000       0.000       0.000       0.000       0.000       0.000    
        0.000       0.000       0.000       0.000       0.000       0.000       0.000      1.8000E-02  1.8000E-02  1.8000E-02
       3.6000E-02  3.6000E-02  3.6000E-02  3.6000E-02  3.6000E-02  3.6000E-02  3.6000E-02  3.6000E-02  3.6000E-02  4.5000E-02
       4.5000E-02  4.5000E-02  9.0000E-02  9.0000E-02  9.0000E-02  0.2700      0.2700      0.2700      4.5000E-02  4.5000E-02
       3.6000E-02  1.8000E-02  1.8000E-02  1.8000E-02  1.8000E-02  1.8000E-02  3.6000E-02  9.0000E-02  9.0000E-02  9.0000E-02
       1.8000E-02  1.8000E-02  1.8000E-02  1.8000E-02  1.8000E-02  1.8000E-02  1.8000E-02  3.6000E-02  3.6000E-02  4.5000E-02
       9.0000E-02  9.0000E-02  9.0000E-02  4.5000E-02  4.5000E-02  4.5000E-02  4.5000E-02  4.5000E-02  4.5000E-02  9.0000E-02
       0.2700      0.2700      9.0000E-02  9.0000E-02  4.5000E-02  4.5000E-02   0.000       0.000       0.000       0.000    
        0.000    
  55    0.000       0.000       0.000       0.000       0.000       0.000       0.000       0.000       0.000       0.000    
        0.000       0.000       0.000       0.000       0.000       0.000       0.000       0.000      1.8000E-02  1.8000E-02
       1.8000E-02  3.6000E-02  3.6000E-02  3.6000E-02  3.6000E-02  3.6000E-02  3.6000E-02  3.6000E-02  3.6000E-02  4.5000E-02
       4.5000E-02  4.5000E-02  9.0000E-02  9.0000E-02  9.0000E-02  0.2700      0.2700      0.2700      4.5000E-02  3.6000E-02
       3.6000E-02  1.8000E-02  1.8000E-02  1.8000E-02  1.8000E-02  1.8000E-02  3.6000E-02  9.0000E-02  9.0000E-02  9.0000E-02
       1.8000E-02  1.8000E-02  1.8000E-02  1.8000E-02  1.8000E-02  1.8000E-02  1.8000E-02  3.6000E-02  3.6000E-02  4.5000E-02
       9.0000E-02  9.0000E-02  9.0000E-02  4.5000E-02  4.5000E-02  4.5000E-02  4.5000E-02  4.5000E-02  4.5000E-02  9.0000E-02
       0.2700      0.2700      9.0000E-02  9.0000E-02  4.5000E-02  4.5000E-02   0.000       0.000       0.000       0.000    
        0.000    
  56    0.000       0.000       0.000       0.000       0.000       0.000       0.000       0.000       0.000       0.000    
        0.000       0.000       0.000       0.000       0.000       0.000       0.000       0.000       0.000       0.000    
        0.000      3.6000E-02  3.6000E-02  3.6000E-02  3.6000E-02  3.6000E-02  3.6000E-02  3.6000E-02  3.6000E-02  4.5000E-02
       4.5000E-02  4.5000E-02  9.0000E-02  9.0000E-02  9.0000E-02  0.2700      0.2700      0.2700      4.5000E-02  3.6000E-02
       3.6000E-02  1.8000E-02  1.8000E-02  1.8000E-02  1.8000E-02  1.8000E-02  3.6000E-02  9.0000E-02  9.0000E-02  9.0000E-02
       4.5000E-02  3.6000E-02  1.8000E-02  1.8000E-02  1.8000E-02  1.8000E-02  3.6000E-02  3.6000E-02  3.6000E-02  4.5000E-02
       9.0000E-02  9.0000E-02  9.0000E-02  4.5000E-02  4.5000E-02  4.5000E-02  4.5000E-02  4.5000E-02  4.5000E-02  9.0000E-02
       0.2700      9.0000E-02  9.0000E-02  9.0000E-02  4.5000E-02  4.5000E-02   0.000       0.000       0.000       0.000    
        0.000    
  57    0.000       0.000       0.000       0.000       0.000       0.000       0.000       0.000       0.000       0.000    
        0.000       0.000       0.000       0.000       0.000       0.000       0.000       0.000       0.000       0.000    
        0.000       0.000      3.6000E-02  3.6000E-02  3.6000E-02  3.6000E-02  3.6000E-02  3.6000E-02  3.6000E-02  3.6000E-02
       4.5000E-02  4.5000E-02  9.0000E-02  9.0000E-02  9.0000E-02  0.2700      0.2700      9.0000E-02  4.5000E-02  3.6000E-02
       3.6000E-02  1.8000E-02  1.8000E-02  1.8000E-02  1.8000E-02  1.8000E-02  3.6000E-02  3.6000E-02  3.6000E-02  9.0000E-02
       4.5000E-02  3.6000E-02  1.8000E-02  1.8000E-02  1.8000E-02  1.8000E-02  3.6000E-02  3.6000E-02  3.6000E-02  4.5000E-02
       9.0000E-02  9.0000E-02  4.5000E-02  4.5000E-02  3.6000E-02  3.6000E-02  4.5000E-02  4.5000E-02  4.5000E-02  9.0000E-02
       9.0000E-02  4.5000E-02  9.0000E-02  9.0000E-02  4.5000E-02  4.5000E-02   0.000       0.000       0.000       0.000    
        0.000    
  58    0.000       0.000       0.000       0.000       0.000       0.000       0.000       0.000       0.000       0.000    
        0.000       0.000       0.000       0.000       0.000       0.000       0.000       0.000       0.000       0.000    
        0.000       0.000       0.000      3.6000E-02  3.6000E-02  3.6000E-02  3.6000E-02  3.6000E-02  3.6000E-02  3.6000E-02
       4.5000E-02  4.5000E-02  9.0000E-02  9.0000E-02  9.0000E-02  0.2700      0.2700      9.0000E-02  4.5000E-02  3.6000E-02
       3.6000E-02  1.8000E-02  1.8000E-02  1.8000E-02  1.8000E-02  1.8000E-02  1.8000E-02  3.6000E-02  3.6000E-02  9.0000E-02
       4.5000E-02  3.6000E-02  1.8000E-02  1.8000E-02  1.8000E-02  1.8000E-02  3.6000E-02  3.6000E-02  3.6000E-02  4.5000E-02
       9.0000E-02  4.5000E-02  4.5000E-02  4.5000E-02  3.6000E-02  3.6000E-02  3.6000E-02  4.5000E-02  4.5000E-02  9.0000E-02
       9.0000E-02  4.5000E-02  9.0000E-02  9.0000E-02  4.5000E-02  4.5000E-02   0.000       0.000       0.000       0.000    
        0.000    
  59    0.000       0.000       0.000       0.000       0.000       0.000       0.000       0.000       0.000       0.000    
        0.000       0.000       0.000       0.000       0.000       0.000       0.000       0.000       0.000       0.000    
        0.000       0.000       0.000       0.000       0.000       0.000       0.000       0.000       0.000      3.6000E-02
       3.6000E-02  4.5000E-02  9.0000E-02  9.0000E-02  9.0000E-02  0.2700      0.2700      9.0000E-02  4.5000E-02  3.6000E-02
       3.6000E-02  1.8000E-02  1.8000E-02  1.8000E-02  1.8000E-02  1.8000E-02  1.8000E-02  3.6000E-02  3.6000E-02  9.0000E-02
       9.0000E-02  3.6000E-02  3.6000E-02  3.6000E-02  3.6000E-02  3.6000E-02  3.6000E-02  3.6000E-02  3.6000E-02  4.5000E-02
       4.5000E-02  4.5000E-02  4.5000E-02  4.5000E-02  3.6000E-02  3.6000E-02  3.6000E-02  4.5000E-02  4.5000E-02  9.0000E-02
       9.0000E-02  4.5000E-02  9.0000E-02  9.0000E-02  4.5000E-02  4.5000E-02   0.000       0.000       0.000       0.000    
        0.000    
  60    0.000       0.000       0.000       0.000       0.000       0.000       0.000       0.000       0.000       0.000    
        0.000       0.000       0.000       0.000       0.000       0.000       0.000       0.000       0.000       0.000    
        0.000       0.000       0.000       0.000       0.000       0.000       0.000       0.000       0.000       0.000    
        0.000      4.5000E-02  9.0000E-02  9.0000E-02  9.0000E-02  0.2700      0.2700      9.0000E-02  3.6000E-02  3.6000E-02
       3.6000E-02  1.8000E-02  1.8000E-02  1.8000E-02  1.8000E-02  1.8000E-02  1.8000E-02  3.6000E-02  3.6000E-02  3.6000E-02
       9.0000E-02  3.6000E-02  3.6000E-02  3.6000E-02  3.6000E-02  3.6000E-02  3.6000E-02  3.6000E-02  4.5000E-02  4.5000E-02
       4.5000E-02  3.6000E-02  3.6000E-02  3.6000E-02  3.6000E-02  3.6000E-02  3.6000E-02  4.5000E-02  9.0000E-02  9.0000E-02
       9.0000E-02  4.5000E-02  4.5000E-02  4.5000E-02  4.5000E-02  4.5000E-02   0.000       0.000       0.000       0.000    
        0.000    
  61    0.000       0.000       0.000       0.000       0.000       0.000       0.000       0.000       0.000       0.000    
        0.000       0.000       0.000       0.000       0.000       0.000       0.000       0.000       0.000       0.000    
        0.000       0.000       0.000       0.000       0.000       0.000       0.000       0.000       0.000       0.000    
        0.000       0.000      4.5000E-02  4.5000E-02  4.5000E-02  4.5000E-02  4.5000E-02  4.5000E-02  3.6000E-02  3.6000E-02
       3.6000E-02  1.8000E-02  1.8000E-02  1.8000E-02  1.8000E-02  1.8000E-02  1.8000E-02  1.8000E-02  3.6000E-02  3.6000E-02
       9.0000E-02  9.0000E-02  3.6000E-02  3.6000E-02  3.6000E-02  3.6000E-02  3.6000E-02  3.6000E-02  3.6000E-02  3.6000E-02
       3.6000E-02  3.6000E-02  3.6000E-02  3.6000E-02  3.6000E-02  3.6000E-02  3.6000E-02  4.5000E-02  9.0000E-02  4.5000E-02
       9.0000E-02  4.5000E-02  4.5000E-02  4.5000E-02  4.5000E-02  4.5000E-02   0.000       0.000       0.000       0.000    
        0.000    
  62    0.000       0.000       0.000       0.000       0.000       0.000       0.000       0.000       0.000       0.000    
        0.000       0.000       0.000       0.000       0.000       0.000       0.000       0.000       0.000       0.000    
        0.000       0.000       0.000       0.000       0.000       0.000       0.000       0.000       0.000       0.000    
        0.000       0.000       0.000      4.5000E-02  4.5000E-02   0.000       0.000       0.000       0.000       0.000    
        0.000       0.000       0.000       0.000       0.000       0.000      1.8000E-02  1.8000E-02  3.6000E-02  3.6000E-02
       4.5000E-02  9.0000E-02  3.6000E-02  3.6000E-02  3.6000E-02  3.6000E-02  3.6000E-02  3.6000E-02  3.6000E-02  3.6000E-02
       3.6000E-02  3.6000E-02  3.6000E-02  3.6000E-02  3.6000E-02  3.6000E-02  4.5000E-02  9.0000E-02  9.0000E-02  4.5000E-02
       4.5000E-02  4.5000E-02  4.5000E-02  4.5000E-02  4.5000E-02  4.5000E-02   0.000       0.000       0.000       0.000    
        0.000    
  63    0.000       0.000       0.000       0.000       0.000       0.000       0.000       0.000       0.000       0.000    
        0.000       0.000       0.000       0.000       0.000       0.000       0.000       0.000       0.000       0.000    
        0.000       0.000       0.000       0.000       0.000       0.000       0.000       0.000       0.000       0.000    
        0.000       0.000       0.000       0.000       0.000       0.000       0.000       0.000       0.000       0.000    
        0.000       0.000       0.000       0.000       0.000       0.000      1.8000E-02  1.8000E-02  1.8000E-02  3.6000E-02
       4.5000E-02  4.5000E-02  3.6000E-02  3.6000E-02  3.6000E-02  3.6000E-02  3.6000E-02  3.6000E-02  3.6000E-02  3.6000E-02
       3.6000E-02  3.6000E-02  3.6000E-02  3.6000E-02  3.6000E-02  3.6000E-02  4.5000E-02  9.0000E-02  9.0000E-02  4.5000E-02
       4.5000E-02  4.5000E-02  4.5000E-02  4.5000E-02  4.5000E-02  4.5000E-02   0.000       0.000       0.000       0.000    
        0.000    
  64    0.000       0.000       0.000       0.000       0.000       0.000       0.000       0.000       0.000       0.000    
        0.000       0.000       0.000       0.000       0.000       0.000       0.000       0.000       0.000       0.000    
        0.000       0.000       0.000       0.000       0.000       0.000       0.000       0.000       0.000       0.000    
        0.000       0.000       0.000       0.000       0.000       0.000       0.000       0.000       0.000       0.000    
        0.000       0.000       0.000       0.000       0.000       0.000      1.8000E-02  1.8000E-02  1.8000E-02  3.6000E-02
       4.5000E-02  4.5000E-02  3.6000E-02  3.6000E-02  3.6000E-02  3.6000E-02  3.6000E-02  3.6000E-02  3.6000E-02  3.6000E-02
       3.6000E-02  3.6000E-02  3.6000E-02  3.6000E-02  3.6000E-02  3.6000E-02  4.5000E-02  9.0000E-02  4.5000E-02  4.5000E-02
       4.5000E-02  4.5000E-02  4.5000E-02  4.5000E-02  4.5000E-02  4.5000E-02   0.000       0.000       0.000       0.000    
        0.000    
  65    0.000       0.000       0.000       0.000       0.000       0.000       0.000       0.000       0.000       0.000    
        0.000       0.000       0.000       0.000       0.000       0.000       0.000       0.000       0.000       0.000    
        0.000       0.000       0.000       0.000       0.000       0.000       0.000       0.000       0.000       0.000    
        0.000       0.000       0.000       0.000       0.000       0.000       0.000       0.000       0.000       0.000    
        0.000       0.000       0.000       0.000       0.000       0.000       0.000       0.000      1.8000E-02  1.8000E-02
       4.5000E-02  4.5000E-02  3.6000E-02  3.6000E-02  3.6000E-02  3.6000E-02  3.6000E-02  3.6000E-02  3.6000E-02  3.6000E-02
       3.6000E-02  3.6000E-02  3.6000E-02  3.6000E-02  3.6000E-02  4.5000E-02  4.5000E-02  4.5000E-02  4.5000E-02  4.5000E-02
       4.5000E-02  4.5000E-02  4.5000E-02  4.5000E-02  4.5000E-02  4.5000E-02   0.000       0.000       0.000       0.000    
        0.000    
  66    0.000       0.000       0.000       0.000       0.000       0.000       0.000       0.000       0.000       0.000    
        0.000       0.000       0.000       0.000       0.000       0.000       0.000       0.000       0.000       0.000    
        0.000       0.000       0.000       0.000       0.000       0.000       0.000       0.000       0.000       0.000    
        0.000       0.000       0.000       0.000       0.000       0.000       0.000       0.000       0.000       0.000    
        0.000       0.000       0.000       0.000       0.000       0.000       0.000       0.000       0.000      1.8000E-02
       1.8000E-02  3.6000E-02  3.6000E-02  3.6000E-02  3.6000E-02  3.6000E-02  3.6000E-02  3.6000E-02  3.6000E-02  3.6000E-02
       3.6000E-02  3.6000E-02  3.6000E-02  3.6000E-02  3.6000E-02  4.5000E-02  4.5000E-02  4.5000E-02  4.5000E-02  4.5000E-02
       4.5000E-02  4.5000E-02  4.5000E-02  4.5000E-02  4.5000E-02  3.6000E-02   0.000       0.000       0.000       0.000    
        0.000    
  67    0.000       0.000       0.000       0.000       0.000       0.000       0.000       0.000       0.000       0.000    
        0.000       0.000       0.000       0.000       0.000       0.000       0.000       0.000       0.000       0.000    
        0.000       0.000       0.000       0.000       0.000       0.000       0.000       0.000       0.000       0.000    
        0.000       0.000       0.000       0.000       0.000       0.000       0.000       0.000       0.000       0.000    
        0.000       0.000       0.000       0.000       0.000       0.000       0.000       0.000       0.000      1.8000E-02
       1.8000E-02  3.6000E-02  3.6000E-02  3.6000E-02  1.8000E-02  1.8000E-02  1.8000E-02  1.8000E-02  1.8000E-02  1.8000E-02
       1.8000E-02  3.6000E-02  3.6000E-02  3.6000E-02  3.6000E-02  4.5000E-02  4.5000E-02  4.5000E-02  4.5000E-02  4.5000E-02
       4.5000E-02  4.5000E-02  4.5000E-02  4.5000E-02  3.6000E-02  3.6000E-02   0.000       0.000       0.000       0.000    
        0.000    
  68    0.000       0.000       0.000       0.000       0.000       0.000       0.000       0.000       0.000       0.000    
        0.000       0.000       0.000       0.000       0.000       0.000       0.000       0.000       0.000       0.000    
        0.000       0.000       0.000       0.000       0.000       0.000       0.000       0.000       0.000       0.000    
        0.000       0.000       0.000       0.000       0.000       0.000       0.000       0.000       0.000       0.000    
        0.000       0.000       0.000       0.000       0.000       0.000       0.000       0.000       0.000       0.000    
       1.8000E-02  3.6000E-02  3.6000E-02  3.6000E-02  1.8000E-02  1.8000E-02  1.8000E-02  1.8000E-02  1.8000E-02  1.8000E-02
       1.8000E-02  3.6000E-02  3.6000E-02  3.6000E-02  3.6000E-02  4.5000E-02  4.5000E-02  4.5000E-02  4.5000E-02  4.5000E-02
       4.5000E-02  4.5000E-02  4.5000E-02  4.5000E-02  3.6000E-02  3.6000E-02   0.000       0.000       0.000       0.000    
        0.000    
  69    0.000       0.000       0.000       0.000       0.000       0.000       0.000       0.000       0.000       0.000    
        0.000       0.000       0.000       0.000       0.000       0.000       0.000       0.000       0.000       0.000    
        0.000       0.000       0.000       0.000       0.000       0.000       0.000       0.000       0.000       0.000    
        0.000       0.000       0.000       0.000       0.000       0.000       0.000       0.000       0.000       0.000    
        0.000       0.000       0.000       0.000       0.000       0.000       0.000       0.000       0.000       0.000    
        0.000       0.000       0.000       0.000       0.000       0.000      1.8000E-02  1.8000E-02  1.8000E-02  1.8000E-02
       1.8000E-02  3.6000E-02  3.6000E-02  3.6000E-02  4.5000E-02  4.5000E-02  4.5000E-02  4.5000E-02  4.5000E-02  4.5000E-02
       4.5000E-02  4.5000E-02  4.5000E-02  4.5000E-02  3.6000E-02  3.6000E-02   0.000       0.000       0.000       0.000    
        0.000    
  70    0.000       0.000       0.000       0.000       0.000       0.000       0.000       0.000       0.000       0.000    
        0.000       0.000       0.000       0.000       0.000       0.000       0.000       0.000       0.000       0.000    
        0.000       0.000       0.000       0.000       0.000       0.000       0.000       0.000       0.000       0.000    
        0.000       0.000       0.000       0.000       0.000       0.000       0.000       0.000       0.000       0.000    
        0.000       0.000       0.000       0.000       0.000       0.000       0.000       0.000       0.000       0.000    
        0.000       0.000       0.000       0.000       0.000       0.000      1.8000E-02  1.8000E-02  1.8000E-02  1.8000E-02
       1.8000E-02  4.5000E-02  4.5000E-02  4.5000E-02  4.5000E-02  4.5000E-02  4.5000E-02  4.5000E-02  4.5000E-02  4.5000E-02
       4.5000E-02  4.5000E-02  4.5000E-02  4.5000E-02  3.6000E-02   0.000       0.000       0.000       0.000       0.000    
        0.000    
  71    0.000       0.000       0.000       0.000       0.000       0.000       0.000       0.000       0.000       0.000    
        0.000       0.000       0.000       0.000       0.000       0.000       0.000       0.000       0.000       0.000    
        0.000       0.000       0.000       0.000       0.000       0.000       0.000       0.000       0.000       0.000    
        0.000       0.000       0.000       0.000       0.000       0.000       0.000       0.000       0.000       0.000    
        0.000       0.000       0.000       0.000       0.000       0.000       0.000       0.000       0.000       0.000    
        0.000       0.000       0.000       0.000       0.000       0.000       0.000      1.8000E-02  1.8000E-02  3.6000E-02
       4.5000E-02  4.5000E-02  4.5000E-02  4.5000E-02   0.000       0.000       0.000       0.000       0.000       0.000    
        0.000       0.000       0.000       0.000      3.6000E-02   0.000       0.000       0.000       0.000       0.000    
        0.000    
  72    0.000       0.000       0.000       0.000       0.000       0.000       0.000       0.000       0.000       0.000    
        0.000       0.000       0.000       0.000       0.000       0.000       0.000       0.000       0.000       0.000    
        0.000       0.000       0.000       0.000       0.000       0.000       0.000       0.000       0.000       0.000    
        0.000       0.000       0.000       0.000       0.000       0.000       0.000       0.000       0.000       0.000    
        0.000       0.000       0.000       0.000       0.000       0.000       0.000       0.000       0.000       0.000    
        0.000       0.000       0.000       0.000       0.000       0.000       0.000       0.000      1.8000E-02  3.6000E-02
       4.5000E-02  4.5000E-02   0.000       0.000       0.000       0.000       0.000       0.000       0.000       0.000    
        0.000       0.000       0.000       0.000       0.000       0.000       0.000       0.000       0.000       0.000    
        0.000    
  73    0.000       0.000       0.000       0.000       0.000       0.000       0.000       0.000       0.000       0.000    
        0.000       0.000       0.000       0.000       0.000       0.000       0.000       0.000       0.000       0.000    
        0.000       0.000       0.000       0.000       0.000       0.000       0.000       0.000       0.000       0.000    
        0.000       0.000       0.000       0.000       0.000       0.000       0.000       0.000       0.000       0.000    
        0.000       0.000       0.000       0.000       0.000       0.000       0.000       0.000       0.000       0.000    
        0.000       0.000       0.000       0.000       0.000       0.000       0.000       0.000      1.8000E-02  3.6000E-02
       4.5000E-02   0.000       0.000       0.000       0.000       0.000       0.000       0.000       0.000       0.000    
        0.000       0.000       0.000       0.000       0.000       0.000       0.000       0.000       0.000       0.000    
        0.000    

     BROOKS-COREY EPSILON =   4.00000    



            SATURATED WATER CONTENT
 READING ON UNIT   14 WITH FORMAT: (FREE)              

            1           2           3           4           5           6           7           8           9          10
           11          12          13          14          15          16          17          18          19          20
           21          22          23          24          25          26          27          28          29          30
           31          32          33          34          35          36          37          38          39          40
           41          42          43          44          45          46          47          48          49          50
           51          52          53          54          55          56          57          58          59          60
           61          62          63          64          65          66          67          68          69          70
           71          72          73          74          75          76          77          78          79          80
           81
 ........................................................................................................................
   1    0.000       0.000       0.000       0.000       0.000       0.000       0.000       0.000       0.000       0.000    
        0.000       0.000       0.000       0.000       0.000       0.000       0.000       0.000       0.000       0.000    
        0.000       0.000       0.000       0.000       0.000       0.000       0.000       0.000       0.000       0.000    
        0.000       0.000       0.000       0.000       0.000       0.000       0.000       0.000       0.000       0.000    
        0.000       0.000       0.000       0.000       0.000       0.000       0.000       0.000       0.000       0.000    
        0.000       0.000       0.000       0.000       0.000       0.000       0.000       0.000       0.000       0.000    
        0.000       0.000       0.000      0.1400      0.1400       0.000       0.000       0.000       0.000       0.000    
        0.000       0.000       0.000       0.000       0.000       0.000       0.000       0.000       0.000       0.000    
        0.000    
   2    0.000       0.000       0.000       0.000       0.000       0.000       0.000       0.000       0.000       0.000    
        0.000       0.000       0.000       0.000       0.000       0.000       0.000       0.000       0.000       0.000    
        0.000       0.000       0.000       0.000       0.000       0.000       0.000       0.000       0.000       0.000    
        0.000       0.000       0.000       0.000       0.000       0.000       0.000       0.000       0.000       0.000    
        0.000       0.000       0.000       0.000       0.000       0.000       0.000       0.000       0.000       0.000    
        0.000       0.000       0.000       0.000       0.000       0.000       0.000       0.000       0.000       0.000    
        0.000       0.000      0.1400      0.1400      0.1400       0.000       0.000       0.000       0.000       0.000    
        0.000       0.000       0.000       0.000       0.000       0.000       0.000       0.000       0.000       0.000    
        0.000    
   3    0.000       0.000       0.000       0.000       0.000       0.000       0.000       0.000       0.000       0.000    
        0.000       0.000       0.000       0.000       0.000       0.000       0.000       0.000       0.000       0.000    
        0.000       0.000       0.000       0.000       0.000       0.000       0.000       0.000       0.000       0.000    
        0.000       0.000       0.000       0.000       0.000       0.000       0.000       0.000       0.000       0.000    
        0.000       0.000       0.000       0.000       0.000       0.000       0.000       0.000       0.000       0.000    
        0.000       0.000       0.000       0.000       0.000       0.000       0.000       0.000       0.000       0.000    
        0.000       0.000      0.1400      0.1400      0.2000       0.000       0.000       0.000       0.000       0.000    
        0.000       0.000       0.000       0.000       0.000       0.000       0.000       0.000       0.000       0.000    
        0.000    
   4    0.000       0.000       0.000       0.000       0.000       0.000       0.000       0.000       0.000       0.000    
        0.000       0.000       0.000       0.000       0.000       0.000       0.000       0.000       0.000       0.000    
        0.000       0.000       0.000       0.000       0.000       0.000       0.000       0.000       0.000       0.000    
        0.000       0.000       0.000       0.000       0.000       0.000       0.000       0.000       0.000       0.000    
        0.000       0.000       0.000       0.000       0.000       0.000       0.000       0.000       0.000       0.000    
        0.000       0.000       0.000       0.000       0.000       0.000       0.000       0.000       0.000       0.000    
        0.000      0.1400      0.1400      0.1400      0.2000       0.000       0.000       0.000       0.000       0.000    
        0.000       0.000       0.000       0.000       0.000       0.000       0.000       0.000       0.000       0.000    
        0.000    
   5    0.000       0.000       0.000       0.000       0.000       0.000       0.000       0.000       0.000       0.000    
        0.000       0.000       0.000       0.000       0.000       0.000       0.000       0.000       0.000       0.000    
        0.000       0.000       0.000       0.000       0.000       0.000       0.000       0.000       0.000       0.000    
        0.000       0.000       0.000       0.000       0.000       0.000       0.000       0.000       0.000       0.000    
        0.000       0.000       0.000       0.000       0.000       0.000       0.000       0.000       0.000       0.000    
        0.000       0.000       0.000       0.000       0.000       0.000       0.000       0.000       0.000       0.000    
        0.000      0.1400      0.1400      0.1400      0.2000      0.1400       0.000       0.000       0.000       0.000    
        0.000       0.000       0.000       0.000       0.000       0.000       0.000       0.000       0.000       0.000    
        0.000    
   6    0.000       0.000       0.000       0.000       0.000       0.000       0.000       0.000       0.000       0.000    
        0.000       0.000       0.000       0.000       0.000       0.000       0.000       0.000       0.000       0.000    
        0.000       0.000       0.000       0.000       0.000       0.000       0.000       0.000       0.000       0.000    
        0.000       0.000       0.000       0.000       0.000       0.000       0.000       0.000       0.000       0.000    
        0.000       0.000       0.000       0.000       0.000       0.000       0.000       0.000       0.000       0.000    
        0.000       0.000       0.000       0.000       0.000       0.000       0.000       0.000       0.000       0.000    
        0.000      0.1400      0.1400      0.1400      0.2000      0.2000      0.1400       0.000       0.000       0.000    
        0.000       0.000       0.000       0.000       0.000       0.000       0.000       0.000       0.000       0.000    
        0.000    
   7    0.000       0.000       0.000       0.000       0.000       0.000       0.000       0.000       0.000       0.000    
        0.000       0.000       0.000       0.000       0.000       0.000       0.000       0.000       0.000       0.000    
        0.000       0.000       0.000       0.000       0.000       0.000       0.000       0.000       0.000       0.000    
        0.000       0.000       0.000       0.000       0.000       0.000       0.000       0.000       0.000       0.000    
        0.000       0.000       0.000       0.000       0.000       0.000       0.000       0.000       0.000       0.000    
        0.000       0.000       0.000       0.000       0.000       0.000       0.000       0.000       0.000       0.000    
       0.1400      0.1400      0.1400      0.1400      0.2000      0.2000      0.2000      0.1400       0.000       0.000    
        0.000       0.000       0.000       0.000       0.000       0.000       0.000       0.000       0.000       0.000    
        0.000    
   8    0.000       0.000       0.000       0.000       0.000       0.000       0.000       0.000       0.000       0.000    
        0.000       0.000       0.000       0.000       0.000       0.000       0.000       0.000       0.000       0.000    
        0.000       0.000       0.000       0.000       0.000       0.000       0.000       0.000       0.000       0.000    
        0.000       0.000       0.000       0.000       0.000       0.000       0.000       0.000       0.000       0.000    
        0.000       0.000       0.000       0.000       0.000       0.000       0.000       0.000       0.000       0.000    
        0.000       0.000       0.000       0.000       0.000       0.000       0.000       0.000       0.000       0.000    
       0.1400      0.1400      0.1400      0.1400      0.2000      0.2000      0.2000      0.1400      0.1400      0.1400    
       0.1400       0.000       0.000       0.000       0.000       0.000       0.000       0.000       0.000       0.000    
        0.000    
   9    0.000       0.000       0.000       0.000       0.000       0.000       0.000       0.000       0.000       0.000    
        0.000       0.000       0.000       0.000       0.000       0.000       0.000       0.000       0.000       0.000    
        0.000       0.000       0.000       0.000       0.000       0.000       0.000       0.000       0.000       0.000    
        0.000       0.000       0.000       0.000       0.000       0.000       0.000       0.000       0.000       0.000    
        0.000       0.000       0.000       0.000       0.000       0.000       0.000       0.000      0.1300      0.1300    
        0.000       0.000       0.000       0.000       0.000       0.000       0.000       0.000      0.1400      0.1400    
       0.1400      0.1400      0.1400      0.1400      0.2000      0.2000      0.2000      0.1400      0.1400      0.1400    
       0.1400      0.1400      0.1400      0.1400      0.1400       0.000       0.000       0.000       0.000       0.000    
        0.000    
  10    0.000       0.000       0.000       0.000       0.000       0.000       0.000       0.000       0.000       0.000    
        0.000       0.000       0.000       0.000       0.000       0.000       0.000       0.000       0.000       0.000    
        0.000       0.000       0.000       0.000       0.000       0.000       0.000       0.000       0.000       0.000    
        0.000       0.000       0.000       0.000       0.000       0.000       0.000       0.000       0.000       0.000    
        0.000       0.000       0.000       0.000       0.000       0.000       0.000      0.1300      0.1300      0.1300    
       0.1300      0.1300      0.1300       0.000       0.000       0.000      0.1300      0.1400      0.1400      0.1400    
       0.1400      0.1400      0.1400      0.1400      0.2000      0.2000      0.2000      0.1400      0.1400      0.1400    
       0.1400      0.1400      0.1400      0.1400      0.1400      0.1400       0.000       0.000       0.000       0.000    
        0.000    
  11    0.000       0.000       0.000       0.000       0.000       0.000       0.000       0.000       0.000       0.000    
        0.000       0.000       0.000       0.000       0.000       0.000       0.000       0.000       0.000       0.000    
        0.000       0.000       0.000       0.000       0.000       0.000       0.000       0.000       0.000       0.000    
        0.000       0.000       0.000       0.000       0.000       0.000       0.000       0.000       0.000       0.000    
        0.000       0.000       0.000       0.000       0.000       0.000      0.1300      0.1300      0.1300      0.1300    
       0.1300      0.1300      0.1300      0.1300      0.1300      0.1300      0.1300      0.1400      0.1400      0.1400    
       0.1400      0.1400      0.1400      0.1400      0.2000      0.2000      0.2000      0.1400      0.1400      0.1400    
       0.1400      0.1400      0.1400      0.1400      0.1400      0.1400       0.000       0.000       0.000       0.000    
        0.000    
  12    0.000       0.000       0.000       0.000       0.000       0.000       0.000       0.000       0.000       0.000    
        0.000       0.000       0.000       0.000       0.000       0.000       0.000       0.000       0.000       0.000    
        0.000       0.000       0.000       0.000       0.000       0.000       0.000       0.000       0.000       0.000    
        0.000       0.000       0.000       0.000       0.000       0.000       0.000       0.000       0.000       0.000    
        0.000       0.000       0.000       0.000       0.000       0.000      0.1300      0.1300      0.1300      0.1400    
       0.1400      0.1400      0.1400      0.1400      0.1400      0.1400      0.1400      0.1400      0.1400      0.1400    
       0.1400      0.1400      0.1400      0.1400      0.2000      0.2000      0.2000      0.1400      0.1400      0.1400    
       0.1400      0.1400      0.1400      0.1400      0.1400      0.1400      0.1400       0.000       0.000       0.000    
        0.000    
  13    0.000       0.000       0.000       0.000       0.000       0.000       0.000       0.000       0.000       0.000    
        0.000       0.000       0.000       0.000       0.000       0.000       0.000       0.000       0.000       0.000    
        0.000       0.000       0.000       0.000       0.000       0.000       0.000       0.000       0.000       0.000    
        0.000       0.000       0.000       0.000       0.000       0.000       0.000       0.000       0.000       0.000    
        0.000       0.000       0.000       0.000      0.1300      0.1300      0.1300      0.1300      0.1300      0.1400    
       0.1400      0.1400      0.1400      0.1400      0.1400      0.1400      0.1400      0.1400      0.1400      0.1400    
       0.1400      0.1400      0.1400      0.1400      0.2000      0.2000      0.2000      0.1400      0.1400      0.1400    
       0.1400      0.1400      0.1400      0.1400      0.1400      0.1400      0.1400      0.1400       0.000       0.000    
        0.000    
  14    0.000       0.000       0.000       0.000       0.000       0.000       0.000       0.000       0.000       0.000    
        0.000       0.000       0.000       0.000       0.000       0.000       0.000       0.000       0.000       0.000    
        0.000       0.000       0.000       0.000       0.000       0.000       0.000       0.000       0.000       0.000    
        0.000       0.000       0.000       0.000       0.000       0.000       0.000       0.000       0.000       0.000    
        0.000      0.1300      0.1300      0.1300      0.1300      0.1300      0.1300      0.1300      0.1300      0.1400    
       0.1400      0.1400      0.1400      0.1400      0.1400      0.1400      0.1400      0.1400      0.1400      0.1400    
       0.1400      0.1400      0.1400      0.1400      0.2000      0.2000      0.2000      0.1400      0.1400      0.1400    
       0.1400      0.1400      0.1400      0.1400      0.1400      0.1400      0.1400      0.1400      0.1400       0.000    
        0.000    
  15    0.000       0.000       0.000       0.000       0.000       0.000       0.000       0.000       0.000       0.000    
        0.000       0.000       0.000       0.000       0.000       0.000       0.000       0.000       0.000       0.000    
        0.000       0.000       0.000       0.000       0.000       0.000       0.000       0.000       0.000       0.000    
        0.000       0.000       0.000       0.000       0.000       0.000       0.000       0.000       0.000       0.000    
       0.1300      0.1300      0.1300      0.1300      0.1300      0.1300      0.1300      0.1300      0.1300      0.1300    
       0.1300      0.1400      0.1400      0.1400      0.1400      0.1400      0.1400      0.1400      0.1400      0.1400    
       0.1400      0.1400      0.1400      0.1400      0.2000      0.2000      0.2000      0.2000      0.1400      0.1400    
       0.1400      0.1400      0.1400      0.1400      0.1400      0.1400      0.1400      0.1400      0.1400      0.1400    
        0.000    
  16    0.000       0.000       0.000       0.000       0.000       0.000       0.000       0.000       0.000       0.000    
        0.000       0.000       0.000       0.000       0.000       0.000       0.000       0.000       0.000       0.000    
        0.000       0.000       0.000       0.000       0.000       0.000       0.000       0.000       0.000       0.000    
        0.000       0.000       0.000       0.000       0.000       0.000       0.000       0.000       0.000      0.1300    
       0.1300      0.1300      0.1300      0.1300      0.1300      0.1300      0.1300      0.1300      0.1300      0.1300    
       0.1300      0.1300      0.1400      0.1400      0.1400      0.1400      0.1400      0.1400      0.1400      0.1400    
       0.1400      0.1400      0.1400      0.1400      0.2000      0.2000      0.2000      0.2000      0.2000      0.1400    
       0.1400      0.1400      0.1400      0.1400      0.1400      0.1400      0.1400      0.1400      0.1400      0.1400    
        0.000    
  17    0.000       0.000       0.000       0.000       0.000       0.000       0.000       0.000       0.000       0.000    
        0.000       0.000       0.000       0.000       0.000       0.000       0.000       0.000       0.000       0.000    
        0.000       0.000       0.000       0.000       0.000       0.000       0.000       0.000       0.000       0.000    
        0.000       0.000       0.000       0.000       0.000       0.000       0.000       0.000       0.000      0.1300    
       0.1300      0.1300      0.1300      0.1300      0.1300      0.1300      0.1300      0.1300      0.1300      0.1300    
       0.1300      0.1300      0.1400      0.1400      0.1400      0.1400      0.1400      0.1400      0.1400      0.1400    
       0.1400      0.1400      0.1400      0.1400      0.2000      0.2000      0.2000      0.2000      0.2000      0.2000    
       0.2000      0.2000      0.2000      0.2000      0.2000      0.2000      0.1400      0.1400      0.1400      0.1400    
        0.000    
  18    0.000       0.000       0.000       0.000       0.000       0.000       0.000       0.000       0.000       0.000    
        0.000       0.000       0.000       0.000       0.000       0.000       0.000       0.000       0.000       0.000    
        0.000       0.000       0.000       0.000       0.000       0.000       0.000       0.000       0.000       0.000    
        0.000       0.000       0.000       0.000       0.000       0.000       0.000       0.000       0.000      0.1300    
       0.1300      0.1300      0.1300      0.1300      0.1300      0.1300      0.1300      0.1300      0.1300      0.1300    
       0.1300      0.1300      0.1400      0.1400      0.1400      0.1400      0.1400      0.1400      0.1400      0.1400    
       0.1400      0.1400      0.1400      0.1400      0.2000      0.2000      0.2000      0.2000      0.2000      0.2000    
       0.2000      0.2000      0.2000      0.2000      0.2000      0.2000      0.2000      0.1400      0.1400      0.1400    
        0.000    
  19    0.000       0.000       0.000       0.000       0.000       0.000       0.000       0.000       0.000       0.000    
        0.000       0.000       0.000       0.000       0.000       0.000       0.000       0.000       0.000       0.000    
        0.000       0.000       0.000       0.000       0.000       0.000       0.000       0.000       0.000       0.000    
        0.000       0.000       0.000       0.000      0.1300      0.1300      0.1300      0.1300      0.1300      0.1300    
       0.1300      0.1300      0.1300      0.1300      0.1300      0.1300      0.1300      0.1300      0.1300      0.1300    
       0.1300      0.1300      0.1400      0.1400      0.1400      0.1400      0.1400      0.1400      0.1400      0.1400    
       0.1400      0.1400      0.1400      0.1400      0.2000      0.2000      0.2000      0.2000      0.2000      0.2000    
       0.2000      0.2000      0.2000      0.2000      0.2000      0.2000      0.2000      0.1400      0.1400      0.1400    
       0.1400    
  20    0.000       0.000       0.000       0.000       0.000       0.000       0.000       0.000       0.000       0.000    
        0.000       0.000       0.000       0.000       0.000       0.000       0.000       0.000       0.000       0.000    
        0.000       0.000       0.000       0.000       0.000       0.000       0.000       0.000       0.000       0.000    
        0.000       0.000      0.1300      0.1300      0.1300      0.1300      0.1300      0.1300      0.1300      0.1300    
       0.1300      0.1300      0.1300      0.1300      0.1300      0.1300      0.1300      0.1300      0.1300      0.1300    
       0.1300      0.1300      0.1400      0.1400      0.1400      0.1400      0.1400      0.1400      0.1400      0.1400    
       0.1400      0.1400      0.1400      0.1400      0.2000      0.2000      0.2000      0.2000      0.2000      0.2000    
       0.2000      0.2000      0.2000      0.2000      0.2000      0.2000      0.2000      0.1400      0.1400      0.1400    
       0.1400    
  21    0.000       0.000       0.000       0.000       0.000       0.000       0.000       0.000       0.000       0.000    
        0.000       0.000       0.000       0.000       0.000       0.000       0.000       0.000       0.000       0.000    
        0.000       0.000       0.000       0.000       0.000       0.000       0.000       0.000       0.000      0.1300    
       0.1300      0.1300      0.1300      0.1300      0.1300      0.1300      0.1300      0.1300      0.1300      0.1300    
       0.1300      0.1300      0.1300      0.1300      0.1300      0.1300      0.1300      0.1300      0.1300      0.1300    
       0.1300      0.1300      0.1400      0.1400      0.2000      0.1400      0.1400      0.1400      0.1400      0.1400    
       0.1400      0.1400      0.1400      0.1400      0.1400      0.2000      0.2000      0.2000      0.2000      0.2000    
       0.2000      0.2000      0.2000      0.2000      0.2000      0.2000      0.2000      0.1400      0.1400      0.1400    
       0.1400    
  22    0.000       0.000       0.000       0.000       0.000       0.000       0.000       0.000       0.000       0.000    
        0.000       0.000       0.000       0.000       0.000       0.000       0.000       0.000       0.000       0.000    
        0.000       0.000       0.000       0.000       0.000       0.000      0.1300      0.1300      0.1300      0.1300    
       0.1300      0.1300      0.1300      0.1300      0.1300      0.1300      0.1300      0.1300      0.1300      0.1300    
       0.1300      0.1300      0.1300      0.1300      0.1300      0.1300      0.1300      0.1300      0.1300      0.1300    
       0.1300      0.1400      0.1400      0.1400      0.2000      0.1400      0.1400      0.1400      0.1400      0.1400    
       0.1400      0.1400      0.1400      0.1400      0.1400      0.1400      0.2000      0.2000      0.2000      0.2000    
       0.2000      0.2000      0.2000      0.2000      0.2000      0.2000      0.2000      0.1400      0.1400      0.1400    
       0.1400    
  23    0.000       0.000       0.000       0.000       0.000       0.000       0.000       0.000       0.000       0.000    
        0.000       0.000       0.000       0.000       0.000       0.000       0.000       0.000       0.000       0.000    
        0.000       0.000       0.000       0.000      0.1300      0.1300      0.1300      0.1300      0.1300      0.1300    
       0.1300      0.1300      0.1300      0.1300      0.1300      0.1300      0.1300      0.1300      0.1300      0.1300    
       0.1300      0.1300      0.1300      0.1300      0.1300      0.1300      0.1300      0.1300      0.1400      0.1400    
       0.1400      0.1400      0.1400      0.1400      0.2000      0.1400      0.1400      0.1400      0.1400      0.1400    
       0.1400      0.1400      0.1400      0.1400      0.1400      0.1400      0.1400      0.1400      0.2000      0.2000    
       0.2000      0.2000      0.2000      0.2000      0.2000      0.2000      0.2000      0.1400      0.1400      0.1400    
       0.1400    
  24    0.000       0.000       0.000       0.000       0.000       0.000       0.000       0.000       0.000       0.000    
        0.000       0.000       0.000       0.000       0.000       0.000       0.000       0.000       0.000       0.000    
        0.000       0.000      0.1300      0.1300      0.1300      0.1300      0.1300      0.1300      0.1300      0.1300    
       0.1300      0.1300      0.1300      0.1300      0.1300      0.1300      0.1300      0.1300      0.1300      0.1300    
       0.1300      0.1300      0.1300      0.1300      0.1400      0.1400      0.1400      0.1400      0.1400      0.1400    
       0.1400      0.1400      0.1400      0.1400      0.2000      0.1400      0.1400      0.1400      0.1400      0.1400    
       0.1400      0.1400      0.1400      0.1400      0.1400      0.1400      0.1400      0.1400      0.1400      0.2000    
       0.2000      0.2000      0.2000      0.2000      0.2000      0.2000      0.1400      0.1400      0.1400      0.1400    
       0.1400    
  25    0.000       0.000       0.000       0.000       0.000       0.000       0.000       0.000       0.000       0.000    
        0.000       0.000       0.000       0.000       0.000       0.000       0.000       0.000       0.000       0.000    
       0.1300      0.1300      0.1300      0.1300      0.1300      0.1300      0.1300      0.1300      0.1300      0.1300    
       0.1300      0.1300      0.1300      0.1300      0.1300      0.1300      0.1300      0.1300      0.1300      0.1300    
       0.1300      0.1300      0.1300      0.1400      0.1400      0.1400      0.1400      0.1400      0.1400      0.1400    
       0.1400      0.1400      0.1400      0.1400      0.2000      0.2000      0.1400      0.1400      0.1400      0.1400    
       0.1400      0.1400      0.1400      0.1400      0.1400      0.1400      0.1400      0.1400      0.1400      0.2000    
       0.2000      0.2000      0.2000      0.2000      0.2000      0.1400      0.1400      0.1400      0.1400      0.1400    
        0.000    
  26    0.000       0.000       0.000       0.000       0.000       0.000       0.000       0.000       0.000       0.000    
        0.000       0.000       0.000       0.000       0.000       0.000       0.000       0.000      0.1300      0.1300    
       0.1300      0.1300      0.1300      0.1300      0.1300      0.1300      0.1300      0.1300      0.1300      0.1300    
       0.1300      0.1300      0.1300      0.1300      0.1300      0.1300      0.1300      0.1300      0.1300      0.1300    
       0.1300      0.1300      0.1400      0.1400      0.1400      0.1400      0.1400      0.1400      0.1400      0.1400    
       0.1400      0.1400      0.1400      0.1400      0.2000      0.2000      0.1400      0.1400      0.1400      0.1400    
       0.1400      0.1400      0.1400      0.1400      0.1400      0.1400      0.1400      0.1400      0.1400      0.1400    
       0.2000      0.2000      0.2000      0.2000      0.2000      0.1400      0.1400      0.1400      0.1400       0.000    
        0.000    
  27    0.000       0.000       0.000       0.000       0.000       0.000       0.000       0.000       0.000       0.000    
        0.000       0.000       0.000       0.000       0.000       0.000       0.000      0.1300      0.1300      0.1300    
       0.1300      0.1300      0.1300      0.1300      0.1300      0.1300      0.1300      0.1300      0.1300      0.1300    
       0.1300      0.1300      0.1300      0.1300      0.1300      0.1300      0.1300      0.1300      0.1300      0.1300    
       0.1300      0.1400      0.1400      0.1400      0.1400      0.1400      0.1400      0.1400      0.1400      0.1400    
       0.1400      0.1400      0.1400      0.1400      0.2000      0.2000      0.1400      0.1400      0.1400      0.1400    
       0.1400      0.1400      0.1400      0.1400      0.1400      0.1400      0.1400      0.1400      0.1400      0.1400    
       0.1400      0.2000      0.2000      0.2000      0.2000      0.1400       0.000       0.000       0.000       0.000    
        0.000    
  28    0.000       0.000       0.000       0.000       0.000       0.000       0.000       0.000       0.000       0.000    
        0.000       0.000       0.000       0.000       0.000       0.000      0.1300      0.1300      0.1300      0.1300    
       0.1300      0.1300      0.1300      0.1300      0.1300      0.1300      0.1300      0.1300      0.1300      0.2000    
       0.2000      0.2000      0.2000      0.1300      0.1300      0.1300      0.1300      0.1300      0.1300      0.1400    
       0.1400      0.1400      0.1400      0.1400      0.1400      0.1400      0.1400      0.1400      0.1400      0.1400    
       0.1400      0.1400      0.1400      0.1400      0.2000      0.2000      0.2000      0.1400      0.1400      0.1400    
       0.1400      0.1400      0.1400      0.1400      0.1400      0.1400      0.1400      0.1400      0.1400      0.1400    
       0.1400      0.2000      0.2000      0.2000      0.2000      0.1400       0.000       0.000       0.000       0.000    
        0.000    
  29    0.000       0.000       0.000       0.000       0.000       0.000       0.000       0.000       0.000       0.000    
        0.000      0.1300      0.1300      0.1300      0.1300      0.1300      0.1300      0.1300      0.1300      0.1300    
       0.1300      0.1300      0.1300      0.1300      0.1300      0.1300      0.1300      0.1300      0.1300      0.2000    
       0.2000      0.2000      0.2000      0.2000      0.2000      0.1300      0.1300      0.1300      0.1300      0.1400    
       0.1400      0.2000      0.2000      0.2000      0.2000      0.2000      0.2000      0.1400      0.1400      0.1400    
       0.1400      0.1400      0.1400      0.1400      0.2000      0.2000      0.2000      0.1400      0.1400      0.1400    
       0.1400      0.1400      0.1400      0.1400      0.1400      0.1400      0.1400      0.1400      0.1400      0.1400    
       0.1400      0.2000      0.2000      0.2000      0.2000      0.1400       0.000       0.000       0.000       0.000    
        0.000    
  30    0.000       0.000       0.000       0.000       0.000       0.000       0.000       0.000       0.000       0.000    
       0.1300      0.1300      0.1300      0.1300      0.1300      0.1300      0.2000      0.2000      0.2000      0.2000    
       0.2000      0.2000      0.2000      0.2000      0.2000      0.2000      0.2000      0.2000      0.2000      0.2000    
       0.2000      0.2000      0.2000      0.2000      0.2000      0.2000      0.2000      0.2000      0.2000      0.2000    
       0.2000      0.2000      0.2000      0.2000      0.2000      0.2000      0.2000      0.2000      0.2000      0.1400    
       0.1400      0.1400      0.1400      0.1400      0.2000      0.2000      0.2000      0.2000      0.2000      0.2000    
       0.1400      0.1400      0.1400      0.1400      0.1400      0.1400      0.1400      0.1400      0.1400      0.1400    
       0.1400      0.2000      0.2000      0.2000      0.2000      0.1400       0.000       0.000       0.000       0.000    
        0.000    
  31    0.000       0.000       0.000       0.000       0.000       0.000       0.000       0.000       0.000      0.1300    
       0.1300      0.1300      0.1300      0.1300      0.1300      0.1300      0.2000      0.2000      0.2000      0.2000    
       0.2000      0.2000      0.2000      0.2000      0.2000      0.2000      0.2000      0.2000      0.2000      0.2000    
       0.2000      0.2000      0.2000      0.2000      0.2000      0.2000      0.2000      0.2000      0.2000      0.2000    
       0.2000      0.2000      0.2000      0.2000      0.2000      0.2000      0.2000      0.2000      0.2000      0.2000    
       0.2000      0.2000      0.2000      0.2000      0.2000      0.2000      0.2000      0.2000      0.2000      0.2000    
       0.1400      0.1400      0.1400      0.1400      0.1400      0.1400      0.1400      0.1400      0.1400      0.1400    
       0.1400      0.2000      0.2000      0.2000      0.2000      0.1400       0.000       0.000       0.000       0.000    
        0.000    
  32    0.000       0.000       0.000       0.000       0.000       0.000       0.000       0.000      0.1300      0.1300    
       0.1300      0.1300      0.1300      0.1300      0.1300      0.1300      0.1300      0.1300      0.1300      0.1300    
       0.1300      0.1300      0.1300      0.1300      0.1300      0.1300      0.1400      0.1400      0.1400      0.1400    
       0.1400      0.1400      0.2000      0.2000      0.2000      0.2000      0.2000      0.2000      0.2000      0.2000    
       0.2000      0.2000      0.2000      0.2000      0.2000      0.2000      0.2000      0.2000      0.2000      0.2000    
       0.2000      0.2000      0.2000      0.2000      0.2000      0.2000      0.2000      0.2000      0.2000      0.2000    
       0.1400      0.1400      0.1400      0.1400      0.1400      0.1400      0.1400      0.1400      0.1400      0.1400    
       0.1400      0.2000      0.2000      0.2000      0.2000      0.1400       0.000       0.000       0.000       0.000    
        0.000    
  33    0.000       0.000       0.000       0.000       0.000       0.000       0.000      0.1300      0.1300      0.1300    
       0.1300      0.1300      0.1300      0.1300      0.1300      0.1300      0.1300      0.1300      0.1300      0.1300    
       0.1300      0.1300      0.1300      0.1300      0.1300      0.1400      0.1400      0.1400      0.1400      0.1400    
       0.1400      0.1400      0.2000      0.2000      0.2000      0.2000      0.2000      0.2000      0.2000      0.2000    
       0.2000      0.1400      0.1400      0.1400      0.1400      0.1400      0.2000      0.2000      0.2000      0.2000    
       0.2000      0.2000      0.2000      0.2000      0.2000      0.2000      0.2000      0.2000      0.2000      0.2000    
       0.1400      0.1400      0.1400      0.1400      0.1400      0.1400      0.1400      0.1400      0.1400      0.1400    
       0.1400      0.2000      0.2000      0.2000      0.2000      0.1400       0.000       0.000       0.000       0.000    
        0.000    
  34    0.000       0.000       0.000       0.000       0.000       0.000      0.1300      0.1300      0.1300      0.1300    
       0.1300      0.1300      0.1300      0.1300      0.1300      0.1300      0.1300      0.1300      0.1300      0.1300    
       0.1300      0.1300      0.1400      0.1400      0.1400      0.1400      0.1400      0.1400      0.1400      0.1400    
       0.1400      0.1400      0.2000      0.2000      0.2000      0.2000      0.2000      0.2000      0.2000      0.2000    
       0.2000      0.1400      0.1400      0.1400      0.1400      0.1400      0.2000      0.2000      0.2000      0.2000    
       0.2000      0.2000      0.2000      0.2000      0.2000      0.2000      0.2000      0.2000      0.2000      0.2000    
       0.1400      0.1400      0.1400      0.1400      0.1400      0.1400      0.1400      0.1400      0.1400      0.1400    
       0.2000      0.2000      0.2000      0.2000      0.2000      0.1400       0.000       0.000       0.000       0.000    
        0.000    
  35    0.000       0.000       0.000       0.000       0.000      0.1300      0.1300      0.1300      0.1300      0.1300    
       0.1300      0.1300      0.1300      0.1300      0.1300      0.1300      0.1300      0.1300      0.1400      0.1400    
       0.1400      0.1400      0.1400      0.1400      0.1400      0.2000      0.2000      0.1400      0.1400      0.1400    
       0.1400      0.2000      0.2000      0.2000      0.2000      0.2000      0.2000      0.2000      0.2000      0.2000    
       0.2000      0.1400      0.1400      0.1400      0.1400      0.1400      0.2000      0.2000      0.2000      0.2000    
       0.2000      0.2000      0.2000      0.2000      0.2000      0.2000      0.2000      0.2000      0.2000      0.2000    
       0.1400      0.1400      0.1400      0.1400      0.1400      0.1400      0.1400      0.1400      0.1400      0.1400    
       0.2000      0.2000      0.2000      0.2000      0.2000      0.1400       0.000       0.000       0.000       0.000    
        0.000    
  36    0.000       0.000       0.000       0.000       0.000      0.1300      0.1300      0.1300      0.1300      0.1300    
       0.1300      0.1300      0.1300      0.1300      0.2000      0.2000      0.2000      0.2000      0.2000      0.2000    
       0.2000      0.2000      0.2000      0.2000      0.2000      0.2000      0.2000      0.2000      0.2000      0.2000    
       0.2000      0.2000      0.2000      0.2000      0.2000      0.2000      0.2000      0.2000      0.2000      0.2000    
       0.2000      0.1400      0.1400      0.1400      0.1400      0.1400      0.2000      0.2000      0.2000      0.1400    
       0.1400      0.2000      0.2000      0.2000      0.2000      0.2000      0.2000      0.2000      0.2000      0.2000    
       0.2000      0.2000      0.2000      0.2000      0.2000      0.1400      0.1400      0.1400      0.1400      0.1400    
       0.2000      0.2000      0.2000      0.2000      0.2000      0.1400       0.000       0.000       0.000       0.000    
        0.000    
  37    0.000       0.000       0.000       0.000       0.000      0.1300      0.1300      0.1300      0.1300      0.1300    
       0.1300      0.1300      0.1300      0.2000      0.2000      0.2000      0.2000      0.2000      0.2000      0.2000    
       0.2000      0.2000      0.2000      0.2000      0.2000      0.2000      0.2000      0.2000      0.2000      0.2000    
       0.2000      0.2000      0.2000      0.2000      0.2000      0.2000      0.2000      0.2000      0.2000      0.2000    
       0.1400      0.1400      0.1400      0.1400      0.1400      0.1400      0.2000      0.2000      0.1400      0.1400    
       0.1400      0.2000      0.2000      0.2000      0.2000      0.2000      0.2000      0.2000      0.2000      0.2000    
       0.2000      0.2000      0.2000      0.2000      0.2000      0.2000      0.2000      0.2000      0.1400      0.1400    
       0.2000      0.2000      0.2000      0.2000      0.2000      0.1300       0.000       0.000       0.000       0.000    
        0.000    
  38    0.000       0.000       0.000       0.000       0.000      0.1300      0.1300      0.1300      0.1300      0.1300    
       0.1300      0.1300      0.1300      0.2000      0.2000      0.2000      0.2000      0.2000      0.2000      0.2000    
       0.2000      0.2000      0.2000      0.2000      0.2000      0.2000      0.2000      0.2000      0.2000      0.2000    
       0.2000      0.2000      0.2000      0.2000      0.2000      0.2000      0.2000      0.2000      0.2000      0.2000    
       0.1400      0.1400      0.1400      0.1400      0.1400      0.1400      0.2000      0.2000      0.1400      0.1400    
       0.1400      0.1400      0.2000      0.2000      0.2000      0.2000      0.2000      0.2000      0.2000      0.2000    
       0.2000      0.2000      0.2000      0.2000      0.2000      0.2000      0.2000      0.2000      0.2000      0.2000    
       0.2000      0.2000      0.2000      0.2000      0.2000      0.1300      0.1300       0.000       0.000       0.000    
        0.000    
  39    0.000       0.000       0.000       0.000       0.000      0.1300      0.1300      0.1300      0.1300      0.1300    
       0.1300      0.1300      0.2000      0.2000      0.2000      0.2000      0.2000      0.2000      0.2000      0.2000    
       0.2000      0.2000      0.2000      0.2000      0.2000      0.2000      0.2000      0.2000      0.2000      0.2000    
       0.2000      0.2000      0.2000      0.2000      0.2000      0.2000      0.2000      0.2000      0.2000      0.2000    
       0.1400      0.1400      0.1400      0.1400      0.1400      0.1400      0.2000      0.2000      0.1400      0.1400    
       0.1400      0.1400      0.2000      0.2000      0.2000      0.2000      0.2000      0.2000      0.2000      0.2000    
       0.2000      0.2000      0.2000      0.2000      0.2000      0.2000      0.2000      0.2000      0.2000      0.2000    
       0.2000      0.2000      0.2000      0.2000      0.2000      0.1300      0.1300       0.000       0.000       0.000    
        0.000    
  40    0.000       0.000       0.000       0.000      0.1300      0.1300      0.1300      0.1300      0.1300      0.1300    
       0.1300      0.2000      0.2000      0.2000      0.2000      0.2000      0.2000      0.2000      0.2000      0.2000    
       0.2000      0.2000      0.2000      0.2000      0.2000      0.2000      0.2000      0.2000      0.2000      0.2000    
       0.2000      0.2000      0.2000      0.2000      0.2000      0.2000      0.2000      0.2000      0.2000      0.2000    
       0.1400      0.1400      0.1400      0.1400      0.1400      0.1400      0.2000      0.2000      0.1400      0.1400    
       0.1400      0.1400      0.1400      0.1300      0.1300      0.1300      0.1300      0.1300      0.1300      0.1400    
       0.2000      0.2000      0.2000      0.2000      0.2000      0.2000      0.2000      0.2000      0.2000      0.2000    
       0.2000      0.2000      0.2000      0.2000      0.2000      0.1300      0.1300      0.1300       0.000       0.000    
        0.000    
  41    0.000       0.000       0.000       0.000      0.1300      0.1300      0.1300      0.1300      0.1300      0.1300    
       0.1300      0.2000      0.2000      0.2000      0.2000      0.2000      0.2000      0.1400      0.1400      0.1400    
       0.1400      0.1400      0.1400      0.1400      0.1400      0.1400      0.1400      0.1400      0.1400      0.1400    
       0.1400      0.1400      0.2000      0.2000      0.2000      0.2000      0.2000      0.2000      0.2000      0.1400    
       0.1300      0.1300      0.1300      0.1300      0.1300      0.1300      0.2000      0.2000      0.1400      0.1400    
       0.1400      0.1400      0.1400      0.1300      0.1300      0.1300      0.1300      0.1300      0.1300      0.1400    
       0.1400      0.2000      0.2000      0.2000      0.2000      0.2000      0.2000      0.2000      0.2000      0.2000    
       0.2000      0.2000      0.2000      0.2000      0.2000      0.1300      0.1300      0.1300      0.1300       0.000    
        0.000    
  42    0.000       0.000       0.000      0.1300      0.1300      0.1300      0.1300      0.1300      0.1300      0.2000    
       0.2000      0.2000      0.2000      0.2000      0.1300      0.1300      0.1300      0.1300      0.1300      0.1400    
       0.1400      0.1400      0.1400      0.1400      0.1400      0.1400      0.1400      0.1400      0.1400      0.1400    
       0.1400      0.1400      0.2000      0.2000      0.2000      0.2000      0.2000      0.2000      0.2000      0.1400    
       0.1300      0.1300      0.1300      0.1300      0.1300      0.1300      0.2000      0.2000      0.1400      0.1400    
       0.1400      0.1400      0.1400      0.1300      0.1300      0.1300      0.1300      0.1300      0.1300      0.1400    
       0.1400      0.2000      0.2000      0.2000      0.2000      0.2000      0.2000      0.2000      0.2000      0.2000    
       0.2000      0.2000      0.2000      0.2000      0.2000      0.2000      0.2000      0.1300      0.1300       0.000    
        0.000    
  43    0.000       0.000       0.000      0.1300      0.1300      0.1300      0.1300      0.1300      0.1300      0.2000    
       0.2000      0.2000      0.2000      0.1300      0.1300      0.1300      0.1300      0.1300      0.1300      0.1300    
       0.1400      0.1400      0.1400      0.1400      0.1400      0.1400      0.1400      0.1400      0.1400      0.1400    
       0.1400      0.1400      0.2000      0.2000      0.2000      0.2000      0.2000      0.2000      0.2000      0.1400    
       0.1300      0.1300      0.1300      0.1300      0.1300      0.1300      0.2000      0.2000      0.1400      0.1400    
       0.1300      0.1300      0.1300      0.1300      0.1300      0.1300      0.1300      0.1300      0.1300      0.1400    
       0.1400      0.2000      0.2000      0.2000      0.2000      0.2000      0.2000      0.1400      0.1400      0.1400    
       0.1400      0.2000      0.2000      0.2000      0.2000      0.2000      0.2000      0.2000      0.2000      0.2000    
        0.000    
  44    0.000       0.000      0.1300      0.1300      0.1300      0.1300      0.1300      0.1300      0.2000      0.2000    
       0.2000      0.2000      0.1300      0.1300      0.1300      0.1300      0.1300      0.1300      0.1300      0.1300    
       0.1300      0.1400      0.1400      0.1400      0.1400      0.1400      0.1400      0.1400      0.1400      0.1400    
       0.1400      0.1400      0.2000      0.2000      0.2000      0.2000      0.2000      0.2000      0.2000      0.1400    
       0.1300      0.1300      0.1300      0.1300      0.1300      0.1300      0.2000      0.2000      0.1400      0.1400    
       0.1300      0.1300      0.1300      0.1300      0.1300      0.1300      0.1300      0.1300      0.1300      0.1400    
       0.1400      0.2000      0.2000      0.1400      0.1400      0.1400      0.1400      0.1400      0.1400      0.1400    
       0.1400      0.2000      0.2000      0.2000      0.2000      0.2000      0.2000      0.2000      0.2000      0.2000    
        0.000    
  45    0.000      0.1300      0.1300      0.1300      0.1300      0.1300      0.2000      0.2000      0.2000      0.2000    
       0.2000      0.2000      0.1300      0.1300      0.1300      0.1300      0.1300      0.1300      0.1300      0.1300    
       0.1300      0.1300      0.1400      0.1400      0.1400      0.1400      0.1400      0.1400      0.1400      0.1400    
       0.1400      0.1400      0.2000      0.2000      0.2000      0.2000      0.2000      0.2000      0.2000      0.2000    
       0.1300      0.1300      0.1300      0.1300      0.1300      0.1300      0.2000      0.2000      0.1400      0.1400    
       0.1300      0.1300      0.1300      0.1300      0.1300      0.1300      0.1300      0.1300      0.1300      0.1400    
       0.1400      0.2000      0.2000      0.1400      0.1400      0.1400      0.1400      0.1400      0.1400      0.1400    
       0.1400      0.2000      0.2000      0.2000      0.2000      0.2000      0.2000      0.2000      0.2000      0.2000    
        0.000    
  46    0.000      0.1300      0.1300      0.1300      0.1300      0.2000      0.2000      0.2000      0.2000      0.1300    
       0.1300      0.1300      0.1300      0.1300      0.1300      0.1300      0.1300      0.1300      0.1300      0.1300    
       0.1300      0.1300      0.1400      0.1400      0.1400      0.1400      0.1400      0.1400      0.1400      0.1400    
       0.1400      0.1400      0.2000      0.2000      0.2000      0.2000      0.2000      0.2000      0.2000      0.2000    
       0.1300      0.1300      0.1300      0.1300      0.1300      0.1300      0.2000      0.2000      0.2000      0.1400    
       0.1300      0.1300      0.1300      0.1300      0.1300      0.1300      0.1300      0.1300      0.1300      0.1400    
       0.1400      0.2000      0.2000      0.1400      0.1400      0.1400      0.1400      0.1400      0.1400      0.1400    
       0.1400      0.2000      0.2000      0.2000      0.2000      0.2000      0.2000      0.2000       0.000       0.000    
        0.000    
  47   0.1300      0.1300      0.1300      0.1300      0.1300      0.1300      0.1300      0.1300      0.1300      0.1300    
       0.1300      0.1300      0.1300      0.1300      0.1300      0.1300      0.1300      0.1300      0.1300      0.1300    
       0.1300      0.1300      0.1300      0.1400      0.1400      0.1400      0.1400      0.1400      0.1400      0.1400    
       0.1400      0.1400      0.2000      0.2000      0.2000      0.2000      0.2000      0.2000      0.2000      0.2000    
       0.1300      0.1300      0.1300      0.1300      0.1300      0.1300      0.1300      0.2000      0.2000      0.1400    
       0.1300      0.1300      0.1300      0.1300      0.1300      0.1300      0.1300      0.1300      0.1300      0.1400    
       0.1400      0.2000      0.2000      0.1400      0.1400      0.1400      0.1400      0.1400      0.1400      0.1400    
       0.1400      0.2000      0.2000      0.2000      0.2000      0.2000      0.2000      0.1300       0.000       0.000    
        0.000    
  48    0.000      0.1300      0.1300      0.1300      0.1300      0.1300      0.1300      0.1300      0.1300      0.1300    
       0.1300      0.1300      0.1300      0.1300      0.1300      0.1300      0.1300      0.1300      0.1300      0.1300    
       0.1300      0.1300      0.1300      0.1400      0.1400      0.1400      0.1400      0.1400      0.1400      0.1400    
       0.1400      0.1400      0.2000      0.2000      0.2000      0.2000      0.2000      0.2000      0.2000      0.1400    
       0.1300      0.1300      0.1300      0.1300      0.1300      0.1300      0.1300      0.2000      0.2000      0.2000    
       0.1300      0.1300      0.1300      0.1300      0.1300      0.1300      0.1300      0.1300      0.1300      0.1400    
       0.1400      0.2000      0.2000      0.1400      0.1400      0.1400      0.1400      0.1400      0.1400      0.1400    
       0.1400      0.2000      0.2000      0.2000      0.2000      0.1400      0.1300       0.000       0.000       0.000    
        0.000    
  49    0.000       0.000      0.1300      0.1300      0.1300      0.1300      0.1300      0.1300      0.1300      0.1300    
       0.1300      0.1300      0.1300      0.1300      0.1300      0.1300      0.1300      0.1300      0.1300      0.1300    
       0.1300      0.1300      0.1300      0.1300      0.1300      0.1400      0.1400      0.1400      0.1400      0.1400    
       0.1400      0.1400      0.2000      0.2000      0.2000      0.2000      0.2000      0.2000      0.2000      0.1400    
       0.1300      0.1300      0.1300      0.1300      0.1300      0.1300      0.1300      0.2000      0.2000      0.2000    
       0.1300      0.1300      0.1300      0.1300      0.1300      0.1300      0.1300      0.1300      0.1300      0.1400    
       0.1400      0.2000      0.2000      0.1400      0.1400      0.1400      0.1400      0.1400      0.1400      0.1400    
       0.2000      0.2000      0.2000      0.2000      0.2000      0.1400      0.1300       0.000       0.000       0.000    
        0.000    
  50    0.000       0.000       0.000      0.1300      0.1300      0.1300      0.1300      0.1300      0.1300      0.1300    
       0.1300      0.1300      0.1300      0.1300      0.1300      0.1300      0.1300      0.1300      0.1300      0.1300    
       0.1300      0.1300      0.1300      0.1300      0.1300      0.1300      0.1400      0.1400      0.1400      0.1400    
       0.1400      0.1400      0.2000      0.2000      0.2000      0.2000      0.2000      0.2000      0.2000      0.1400    
       0.1300      0.1300      0.1300      0.1300      0.1300      0.1300      0.1300      0.2000      0.2000      0.2000    
       0.1300      0.1300      0.1300      0.1300      0.1300      0.1300      0.1300      0.1300      0.1300      0.1400    
       0.1400      0.2000      0.2000      0.1400      0.1400      0.1400      0.1400      0.1400      0.1400      0.1400    
       0.2000      0.2000      0.2000      0.2000      0.1400      0.1400      0.1300       0.000       0.000       0.000    
        0.000    
  51    0.000       0.000       0.000       0.000       0.000       0.000       0.000      0.1300      0.1300      0.1300    
       0.1300      0.1300      0.1300       0.000      0.1300      0.1300      0.1300      0.1300      0.1300      0.1300    
       0.1300      0.1300      0.1300      0.1300      0.1300      0.1300      0.1300      0.1400      0.1400      0.1400    
       0.1400      0.1400      0.2000      0.2000      0.2000      0.2000      0.2000      0.2000      0.2000      0.1400    
       0.1300      0.1300      0.1300      0.1300      0.1300      0.1300      0.1300      0.2000      0.2000      0.2000    
       0.1300      0.1300      0.1300      0.1300      0.1300      0.1300      0.1300      0.1300      0.1300      0.1400    
       0.1400      0.2000      0.2000      0.1400      0.1400      0.1400      0.1400      0.1400      0.1400      0.1400    
       0.2000      0.2000      0.2000      0.2000      0.1400      0.1400       0.000       0.000       0.000       0.000    
        0.000    
  52    0.000       0.000       0.000       0.000       0.000       0.000       0.000       0.000       0.000       0.000    
        0.000       0.000       0.000       0.000       0.000      0.1300      0.1300      0.1300      0.1300      0.1300    
       0.1300      0.1300      0.1300      0.1300      0.1300      0.1300      0.1300      0.1300      0.1400      0.1400    
       0.1400      0.1400      0.2000      0.2000      0.2000      0.2000      0.2000      0.2000      0.1400      0.1400    
       0.1300      0.1300      0.1300      0.1300      0.1300      0.1300      0.1300      0.2000      0.2000      0.2000    
       0.1300      0.1300      0.1300      0.1300      0.1300      0.1300      0.1300      0.1300      0.1300      0.1400    
       0.2000      0.2000      0.2000      0.1400      0.1400      0.1400      0.1400      0.1400      0.1400      0.1400    
       0.2000      0.2000      0.2000      0.2000      0.1400      0.1400       0.000       0.000       0.000       0.000    
        0.000    
  53    0.000       0.000       0.000       0.000       0.000       0.000       0.000       0.000       0.000       0.000    
        0.000       0.000       0.000       0.000       0.000       0.000       0.000      0.1300      0.1300      0.1300    
       0.1300      0.1300      0.1300      0.1300      0.1300      0.1300      0.1300      0.1300      0.1400      0.1400    
       0.1400      0.1400      0.2000      0.2000      0.2000      0.2000      0.2000      0.2000      0.1400      0.1400    
       0.1300      0.1300      0.1300      0.1300      0.1300      0.1300      0.1300      0.2000      0.2000      0.2000    
       0.1300      0.1300      0.1300      0.1300      0.1300      0.1300      0.1300      0.1300      0.1300      0.1400    
       0.2000      0.2000      0.2000      0.1400      0.1400      0.1400      0.1400      0.1400      0.1400      0.1400    
       0.2000      0.2000      0.2000      0.2000      0.1400      0.1400       0.000       0.000       0.000       0.000    
        0.000    
  54    0.000       0.000       0.000       0.000       0.000       0.000       0.000       0.000       0.000       0.000    
        0.000       0.000       0.000       0.000       0.000       0.000       0.000      0.1300      0.1300      0.1300    
       0.1300      0.1300      0.1300      0.1300      0.1300      0.1300      0.1300      0.1300      0.1300      0.1400    
       0.1400      0.1400      0.2000      0.2000      0.2000      0.2000      0.2000      0.2000      0.1400      0.1400    
       0.1300      0.1300      0.1300      0.1300      0.1300      0.1300      0.1300      0.2000      0.2000      0.2000    
       0.1300      0.1300      0.1300      0.1300      0.1300      0.1300      0.1300      0.1300      0.1300      0.1400    
       0.2000      0.2000      0.2000      0.1400      0.1400      0.1400      0.1400      0.1400      0.1400      0.2000    
       0.2000      0.2000      0.2000      0.2000      0.1400      0.1400       0.000       0.000       0.000       0.000    
        0.000    
  55    0.000       0.000       0.000       0.000       0.000       0.000       0.000       0.000       0.000       0.000    
        0.000       0.000       0.000       0.000       0.000       0.000       0.000       0.000      0.1300      0.1300    
       0.1300      0.1300      0.1300      0.1300      0.1300      0.1300      0.1300      0.1300      0.1300      0.1400    
       0.1400      0.1400      0.2000      0.2000      0.2000      0.2000      0.2000      0.2000      0.1400      0.1300    
       0.1300      0.1300      0.1300      0.1300      0.1300      0.1300      0.1300      0.2000      0.2000      0.2000    
       0.1300      0.1300      0.1300      0.1300      0.1300      0.1300      0.1300      0.1300      0.1300      0.1400    
       0.2000      0.2000      0.2000      0.1400      0.1400      0.1400      0.1400      0.1400      0.1400      0.2000    
       0.2000      0.2000      0.2000      0.2000      0.1400      0.1400       0.000       0.000       0.000       0.000    
        0.000    
  56    0.000       0.000       0.000       0.000       0.000       0.000       0.000       0.000       0.000       0.000    
        0.000       0.000       0.000       0.000       0.000       0.000       0.000       0.000       0.000       0.000    
        0.000      0.1300      0.1300      0.1300      0.1300      0.1300      0.1300      0.1300      0.1300      0.1400    
       0.1400      0.1400      0.2000      0.2000      0.2000      0.2000      0.2000      0.2000      0.1400      0.1300    
       0.1300      0.1300      0.1300      0.1300      0.1300      0.1300      0.1300      0.2000      0.2000      0.2000    
       0.1400      0.1300      0.1300      0.1300      0.1300      0.1300      0.1300      0.1300      0.1300      0.1400    
       0.2000      0.2000      0.2000      0.1400      0.1400      0.1400      0.1400      0.1400      0.1400      0.2000    
       0.2000      0.2000      0.2000      0.2000      0.1400      0.1400       0.000       0.000       0.000       0.000    
        0.000    
  57    0.000       0.000       0.000       0.000       0.000       0.000       0.000       0.000       0.000       0.000    
        0.000       0.000       0.000       0.000       0.000       0.000       0.000       0.000       0.000       0.000    
        0.000       0.000      0.1300      0.1300      0.1300      0.1300      0.1300      0.1300      0.1300      0.1300    
       0.1400      0.1400      0.2000      0.2000      0.2000      0.2000      0.2000      0.2000      0.1400      0.1300    
       0.1300      0.1300      0.1300      0.1300      0.1300      0.1300      0.1300      0.1300      0.1300      0.2000    
       0.1400      0.1300      0.1300      0.1300      0.1300      0.1300      0.1300      0.1300      0.1300      0.1400    
       0.2000      0.2000      0.1400      0.1400      0.1300      0.1300      0.1400      0.1400      0.1400      0.2000    
       0.2000      0.2000      0.2000      0.2000      0.1400      0.1400       0.000       0.000       0.000       0.000    
        0.000    
  58    0.000       0.000       0.000       0.000       0.000       0.000       0.000       0.000       0.000       0.000    
        0.000       0.000       0.000       0.000       0.000       0.000       0.000       0.000       0.000       0.000    
        0.000       0.000       0.000      0.1300      0.1300      0.1300      0.1300      0.1300      0.1300      0.1300    
       0.1400      0.1400      0.2000      0.2000      0.2000      0.2000      0.2000      0.2000      0.1400      0.1300    
       0.1300      0.1300      0.1300      0.1300      0.1300      0.1300      0.1300      0.1300      0.1300      0.2000    
       0.1400      0.1300      0.1300      0.1300      0.1300      0.1300      0.1300      0.1300      0.1300      0.1400    
       0.2000      0.1400      0.1400      0.1400      0.1300      0.1300      0.1300      0.1400      0.1400      0.2000    
       0.2000      0.2000      0.2000      0.2000      0.1400      0.1400       0.000       0.000       0.000       0.000    
        0.000    
  59    0.000       0.000       0.000       0.000       0.000       0.000       0.000       0.000       0.000       0.000    
        0.000       0.000       0.000       0.000       0.000       0.000       0.000       0.000       0.000       0.000    
        0.000       0.000       0.000       0.000       0.000       0.000       0.000       0.000       0.000      0.1300    
       0.1300      0.1400      0.2000      0.2000      0.2000      0.2000      0.2000      0.2000      0.1400      0.1300    
       0.1300      0.1300      0.1300      0.1300      0.1300      0.1300      0.1300      0.1300      0.1300      0.2000    
       0.2000      0.1300      0.1300      0.1300      0.1300      0.1300      0.1300      0.1300      0.1300      0.1400    
       0.1400      0.1400      0.1400      0.1400      0.1300      0.1300      0.1300      0.1400      0.1400      0.2000    
       0.2000      0.2000      0.2000      0.2000      0.1400      0.1400       0.000       0.000       0.000       0.000    
        0.000    
  60    0.000       0.000       0.000       0.000       0.000       0.000       0.000       0.000       0.000       0.000    
        0.000       0.000       0.000       0.000       0.000       0.000       0.000       0.000       0.000       0.000    
        0.000       0.000       0.000       0.000       0.000       0.000       0.000       0.000       0.000       0.000    
        0.000      0.1400      0.2000      0.2000      0.2000      0.2000      0.2000      0.2000      0.1300      0.1300    
       0.1300      0.1300      0.1300      0.1300      0.1300      0.1300      0.1300      0.1300      0.1300      0.1300    
       0.2000      0.1300      0.1300      0.1300      0.1300      0.1300      0.1300      0.1300      0.1400      0.1400    
       0.1400      0.1300      0.1300      0.1300      0.1300      0.1300      0.1300      0.1400      0.2000      0.2000    
       0.2000      0.2000      0.1400      0.1400      0.1400      0.1400       0.000       0.000       0.000       0.000    
        0.000    
  61    0.000       0.000       0.000       0.000       0.000       0.000       0.000       0.000       0.000       0.000    
        0.000       0.000       0.000       0.000       0.000       0.000       0.000       0.000       0.000       0.000    
        0.000       0.000       0.000       0.000       0.000       0.000       0.000       0.000       0.000       0.000    
        0.000       0.000      0.1400      0.1400      0.1400      0.1400      0.1400      0.1400      0.1300      0.1300    
       0.1300      0.1300      0.1300      0.1300      0.1300      0.1300      0.1300      0.1300      0.1300      0.1300    
       0.2000      0.2000      0.1300      0.1300      0.1300      0.1300      0.1300      0.1300      0.1300      0.1300    
       0.1300      0.1300      0.1300      0.1300      0.1300      0.1300      0.1300      0.1400      0.2000      0.1400    
       0.2000      0.2000      0.1400      0.1400      0.1400      0.1400       0.000       0.000       0.000       0.000    
        0.000    
  62    0.000       0.000       0.000       0.000       0.000       0.000       0.000       0.000       0.000       0.000    
        0.000       0.000       0.000       0.000       0.000       0.000       0.000       0.000       0.000       0.000    
        0.000       0.000       0.000       0.000       0.000       0.000       0.000       0.000       0.000       0.000    
        0.000       0.000       0.000      0.1400      0.1400       0.000       0.000       0.000       0.000       0.000    
        0.000       0.000       0.000       0.000       0.000       0.000      0.1300      0.1300      0.1300      0.1300    
       0.1400      0.2000      0.1300      0.1300      0.1300      0.1300      0.1300      0.1300      0.1300      0.1300    
       0.1300      0.1300      0.1300      0.1300      0.1300      0.1300      0.1400      0.2000      0.2000      0.1400    
       0.1400      0.1400      0.1400      0.1400      0.1400      0.1400       0.000       0.000       0.000       0.000    
        0.000    
  63    0.000       0.000       0.000       0.000       0.000       0.000       0.000       0.000       0.000       0.000    
        0.000       0.000       0.000       0.000       0.000       0.000       0.000       0.000       0.000       0.000    
        0.000       0.000       0.000       0.000       0.000       0.000       0.000       0.000       0.000       0.000    
        0.000       0.000       0.000       0.000       0.000       0.000       0.000       0.000       0.000       0.000    
        0.000       0.000       0.000       0.000       0.000       0.000      0.1300      0.1300      0.1300      0.1300    
       0.1400      0.1400      0.1300      0.1300      0.1300      0.1300      0.1300      0.1300      0.1300      0.1300    
       0.1300      0.1300      0.1300      0.1300      0.1300      0.1300      0.1400      0.2000      0.2000      0.1400    
       0.1400      0.1400      0.1400      0.1400      0.1400      0.1400       0.000       0.000       0.000       0.000    
        0.000    
  64    0.000       0.000       0.000       0.000       0.000       0.000       0.000       0.000       0.000       0.000    
        0.000       0.000       0.000       0.000       0.000       0.000       0.000       0.000       0.000       0.000    
        0.000       0.000       0.000       0.000       0.000       0.000       0.000       0.000       0.000       0.000    
        0.000       0.000       0.000       0.000       0.000       0.000       0.000       0.000       0.000       0.000    
        0.000       0.000       0.000       0.000       0.000       0.000      0.1300      0.1300      0.1300      0.1300    
       0.1400      0.1400      0.1300      0.1300      0.1300      0.1300      0.1300      0.1300      0.1300      0.1300    
       0.1300      0.1300      0.1300      0.1300      0.1300      0.1300      0.1400      0.2000      0.1400      0.1400    
       0.1400      0.1400      0.1400      0.1400      0.1400      0.1400       0.000       0.000       0.000       0.000    
        0.000    
  65    0.000       0.000       0.000       0.000       0.000       0.000       0.000       0.000       0.000       0.000    
        0.000       0.000       0.000       0.000       0.000       0.000       0.000       0.000       0.000       0.000    
        0.000       0.000       0.000       0.000       0.000       0.000       0.000       0.000       0.000       0.000    
        0.000       0.000       0.000       0.000       0.000       0.000       0.000       0.000       0.000       0.000    
        0.000       0.000       0.000       0.000       0.000       0.000       0.000       0.000      0.1300      0.1300    
       0.1400      0.1400      0.1300      0.1300      0.1300      0.1300      0.1300      0.1300      0.1300      0.1300    
       0.1300      0.1300      0.1300      0.1300      0.1300      0.1400      0.1400      0.1400      0.1400      0.1400    
       0.1400      0.1400      0.1400      0.1400      0.1400      0.1400       0.000       0.000       0.000       0.000    
        0.000    
  66    0.000       0.000       0.000       0.000       0.000       0.000       0.000       0.000       0.000       0.000    
        0.000       0.000       0.000       0.000       0.000       0.000       0.000       0.000       0.000       0.000    
        0.000       0.000       0.000       0.000       0.000       0.000       0.000       0.000       0.000       0.000    
        0.000       0.000       0.000       0.000       0.000       0.000       0.000       0.000       0.000       0.000    
        0.000       0.000       0.000       0.000       0.000       0.000       0.000       0.000       0.000      0.1300    
       0.1300      0.1300      0.1300      0.1300      0.1300      0.1300      0.1300      0.1300      0.1300      0.1300    
       0.1300      0.1300      0.1300      0.1300      0.1300      0.1400      0.1400      0.1400      0.1400      0.1400    
       0.1400      0.1400      0.1400      0.1400      0.1400      0.1300       0.000       0.000       0.000       0.000    
        0.000    
  67    0.000       0.000       0.000       0.000       0.000       0.000       0.000       0.000       0.000       0.000    
        0.000       0.000       0.000       0.000       0.000       0.000       0.000       0.000       0.000       0.000    
        0.000       0.000       0.000       0.000       0.000       0.000       0.000       0.000       0.000       0.000    
        0.000       0.000       0.000       0.000       0.000       0.000       0.000       0.000       0.000       0.000    
        0.000       0.000       0.000       0.000       0.000       0.000       0.000       0.000       0.000      0.1300    
       0.1300      0.1300      0.1300      0.1300      0.1300      0.1300      0.1300      0.1300      0.1300      0.1300    
       0.1300      0.1300      0.1300      0.1300      0.1300      0.1400      0.1400      0.1400      0.1400      0.1400    
       0.1400      0.1400      0.1400      0.1400      0.1300      0.1300       0.000       0.000       0.000       0.000    
        0.000    
  68    0.000       0.000       0.000       0.000       0.000       0.000       0.000       0.000       0.000       0.000    
        0.000       0.000       0.000       0.000       0.000       0.000       0.000       0.000       0.000       0.000    
        0.000       0.000       0.000       0.000       0.000       0.000       0.000       0.000       0.000       0.000    
        0.000       0.000       0.000       0.000       0.000       0.000       0.000       0.000       0.000       0.000    
        0.000       0.000       0.000       0.000       0.000       0.000       0.000       0.000       0.000       0.000    
       0.1300      0.1300      0.1300      0.1300      0.1300      0.1300      0.1300      0.1300      0.1300      0.1300    
       0.1300      0.1300      0.1300      0.1300      0.1300      0.1400      0.1400      0.1400      0.1400      0.1400    
       0.1400      0.1400      0.1400      0.1400      0.1300      0.1300       0.000       0.000       0.000       0.000    
        0.000    
  69    0.000       0.000       0.000       0.000       0.000       0.000       0.000       0.000       0.000       0.000    
        0.000       0.000       0.000       0.000       0.000       0.000       0.000       0.000       0.000       0.000    
        0.000       0.000       0.000       0.000       0.000       0.000       0.000       0.000       0.000       0.000    
        0.000       0.000       0.000       0.000       0.000       0.000       0.000       0.000       0.000       0.000    
        0.000       0.000       0.000       0.000       0.000       0.000       0.000       0.000       0.000       0.000    
        0.000       0.000       0.000       0.000       0.000       0.000      0.1300      0.1300      0.1300      0.1300    
       0.1300      0.1300      0.1300      0.1300      0.1400      0.1400      0.1400      0.1400      0.1400      0.1400    
       0.1400      0.1400      0.1400      0.1400      0.1300      0.1300       0.000       0.000       0.000       0.000    
        0.000    
  70    0.000       0.000       0.000       0.000       0.000       0.000       0.000       0.000       0.000       0.000    
        0.000       0.000       0.000       0.000       0.000       0.000       0.000       0.000       0.000       0.000    
        0.000       0.000       0.000       0.000       0.000       0.000       0.000       0.000       0.000       0.000    
        0.000       0.000       0.000       0.000       0.000       0.000       0.000       0.000       0.000       0.000    
        0.000       0.000       0.000       0.000       0.000       0.000       0.000       0.000       0.000       0.000    
        0.000       0.000       0.000       0.000       0.000       0.000      0.1300      0.1300      0.1300      0.1300    
       0.1300      0.1400      0.1400      0.1400      0.1400      0.1400      0.1400      0.1400      0.1400      0.1400    
       0.1400      0.1400      0.1400      0.1400      0.1300       0.000       0.000       0.000       0.000       0.000    
        0.000    
  71    0.000       0.000       0.000       0.000       0.000       0.000       0.000       0.000       0.000       0.000    
        0.000       0.000       0.000       0.000       0.000       0.000       0.000       0.000       0.000       0.000    
        0.000       0.000       0.000       0.000       0.000       0.000       0.000       0.000       0.000       0.000    
        0.000       0.000       0.000       0.000       0.000       0.000       0.000       0.000       0.000       0.000    
        0.000       0.000       0.000       0.000       0.000       0.000       0.000       0.000       0.000       0.000    
        0.000       0.000       0.000       0.000       0.000       0.000       0.000      0.1300      0.1300      0.1300    
       0.1400      0.1400      0.1400      0.1400       0.000       0.000       0.000       0.000       0.000       0.000    
        0.000       0.000       0.000       0.000      0.1300       0.000       0.000       0.000       0.000       0.000    
        0.000    
  72    0.000       0.000       0.000       0.000       0.000       0.000       0.000       0.000       0.000       0.000    
        0.000       0.000       0.000       0.000       0.000       0.000       0.000       0.000       0.000       0.000    
        0.000       0.000       0.000       0.000       0.000       0.000       0.000       0.000       0.000       0.000    
        0.000       0.000       0.000       0.000       0.000       0.000       0.000       0.000       0.000       0.000    
        0.000       0.000       0.000       0.000       0.000       0.000       0.000       0.000       0.000       0.000    
        0.000       0.000       0.000       0.000       0.000       0.000       0.000       0.000      0.1300      0.1300    
       0.1400      0.1400       0.000       0.000       0.000       0.000       0.000       0.000       0.000       0.000    
        0.000       0.000       0.000       0.000       0.000       0.000       0.000       0.000       0.000       0.000    
        0.000    
  73    0.000       0.000       0.000       0.000       0.000       0.000       0.000       0.000       0.000       0.000    
        0.000       0.000       0.000       0.000       0.000       0.000       0.000       0.000       0.000       0.000    
        0.000       0.000       0.000       0.000       0.000       0.000       0.000       0.000       0.000       0.000    
        0.000       0.000       0.000       0.000       0.000       0.000       0.000       0.000       0.000       0.000    
        0.000       0.000       0.000       0.000       0.000       0.000       0.000       0.000       0.000       0.000    
        0.000       0.000       0.000       0.000       0.000       0.000       0.000       0.000      0.1300      0.1300    
       0.1400       0.000       0.000       0.000       0.000       0.000       0.000       0.000       0.000       0.000    
        0.000       0.000       0.000       0.000       0.000       0.000       0.000       0.000       0.000       0.000    
        0.000    

UNSATURATED FLOW RESULTS WILL BE PRINTED TO SEPARATE FILES FOR SELECTED MODEL CELLS, AND TIME STEPS AS DEFINED BY OUTPUT CONTROL PACKAGE 

SELECTED MODEL CELLS ARE: 
 ROW NUMBER  COLUMN NUMBER  FORTRAN UNIT NUMBER  OUTPUT OPTION


      38             9                 65                 1
      20            42                 66                 2
      45            30                 67                 3
       0             0                 68                 4
1
                            STRESS PERIOD NO.    1, LENGTH =   1.000000    
                            -----------------------------------------------

                              NUMBER OF TIME STEPS =     1

                               MULTIPLIER FOR DELT =     1.000

                            INITIAL TIME STEP SIZE =   1.000000    

      5 WELLS



 CLASSIFICATION & COUNT OF STREAM SEGMENTS BASED ON SOURCE OF INFLOW:

                HEADWATER     DIVERSION     RECEIVES TRIBUTARY FLOW
                ---------     ---------     -----------------------
                     8              0               7



                    INPUT DATA FOR EACH STREAM SEGMENT
 ---------------------------------------------------------------------------------------------

 SEGMENT    SEG.     INFLOW   OVERLAND   STREAM    STREAM   ICALC  OUTFLOW  DIVERSION PRIORITY
    NO.    LENGTH     RATE     RUNOFF      ET       PPT.    METH.  TO SEG.  FROM SEG.    NO.

      1  2.226E+03 0.000E+00 0.000E+00 0.000E+00 0.000E+00    1        9        0        0
      2  2.226E+03 0.000E+00 0.000E+00 0.000E+00 0.000E+00    1       10        0        0
      3  4.740E+02 0.000E+00 0.000E+00 0.000E+00 0.000E+00    1        9        0        0
      4  1.512E+03 0.000E+00 0.000E+00 0.000E+00 0.000E+00    1       11        0        0
      5  1.104E+03 0.000E+00 0.000E+00 0.000E+00 0.000E+00    1       15        0        0
      6  5.760E+02 0.000E+00 0.000E+00 0.000E+00 0.000E+00    1       13        0        0
      7  1.314E+03 0.000E+00 0.000E+00 0.000E+00 0.000E+00    1       12        0        0
      8  1.860E+03 0.000E+00 0.000E+00 0.000E+00 0.000E+00    1       14        0        0
      9  4.620E+02 0.000E+00 0.000E+00 0.000E+00 0.000E+00    1       10        0        0
     10  7.800E+02 0.000E+00 0.000E+00 0.000E+00 0.000E+00    1       11        0        0
     11  9.840E+02 0.000E+00 0.000E+00 0.000E+00 0.000E+00    1       12        0        0
     12  2.940E+02 0.000E+00 0.000E+00 0.000E+00 0.000E+00    1       13        0        0
     13  9.060E+02 0.000E+00 0.000E+00 0.000E+00 0.000E+00    1       14        0        0
     14  3.420E+02 0.000E+00 0.000E+00 0.000E+00 0.000E+00    1       15        0        0
     15  2.700E+02 0.000E+00 0.000E+00 0.000E+00 0.000E+00    1        0        0        0


         STREAMBED PROPERTIES AND STREAM DIMENSIONS

 SEGMENT     WIDTH OF STREAM     DEPTH OF STREAM    STREAM ROUGHNESS
    No.     UPPER     LOWER     UPPER     LOWER     CHANNEL      BANK

     1    3.000E+00 3.000E+00                      4.000E-02
     2    3.000E+00 3.000E+00                      4.000E-02
     3    3.000E+00 3.000E+00                      4.000E-02
     4    3.000E+00 3.000E+00                      4.000E-02
     5    3.000E+00 3.000E+00                      4.000E-02
     6    3.000E+00 3.000E+00                      4.000E-02
     7    3.000E+00 3.000E+00                      4.000E-02
     8    3.000E+00 3.000E+00                      4.000E-02
     9    3.000E+00 3.000E+00                      4.000E-02
    10    3.000E+00 3.000E+00                      4.000E-02
    11    3.000E+00 3.000E+00                      4.000E-02
    12    3.000E+00 3.000E+00                      4.000E-02
    13    3.000E+00 3.000E+00                      4.000E-02
    14    3.000E+00 3.000E+00                      4.000E-02
    15    3.000E+00 3.000E+00                      4.000E-02






            AREAL INFILTRATION RATE
 READING ON UNIT   14 WITH FORMAT: (FREE)              

            1           2           3           4           5           6           7           8           9          10
           11          12          13          14          15          16          17          18          19          20
           21          22          23          24          25          26          27          28          29          30
           31          32          33          34          35          36          37          38          39          40
           41          42          43          44          45          46          47          48          49          50
           51          52          53          54          55          56          57          58          59          60
           61          62          63          64          65          66          67          68          69          70
           71          72          73          74          75          76          77          78          79          80
           81
 ........................................................................................................................
   1    0.000       0.000       0.000       0.000       0.000       0.000       0.000       0.000       0.000       0.000    
        0.000       0.000       0.000       0.000       0.000       0.000       0.000       0.000       0.000       0.000    
        0.000       0.000       0.000       0.000       0.000       0.000       0.000       0.000       0.000       0.000    
        0.000       0.000       0.000       0.000       0.000       0.000       0.000       0.000       0.000       0.000    
        0.000       0.000       0.000       0.000       0.000       0.000       0.000       0.000       0.000       0.000    
        0.000       0.000       0.000       0.000       0.000       0.000       0.000       0.000       0.000       0.000    
        0.000       0.000       0.000      8.8000E-04  8.8000E-04   0.000       0.000       0.000       0.000       0.000    
        0.000       0.000       0.000       0.000       0.000       0.000       0.000       0.000       0.000       0.000    
        0.000    
   2    0.000       0.000       0.000       0.000       0.000       0.000       0.000       0.000       0.000       0.000    
        0.000       0.000       0.000       0.000       0.000       0.000       0.000       0.000       0.000       0.000    
        0.000       0.000       0.000       0.000       0.000       0.000       0.000       0.000       0.000       0.000    
        0.000       0.000       0.000       0.000       0.000       0.000       0.000       0.000       0.000       0.000    
        0.000       0.000       0.000       0.000       0.000       0.000       0.000       0.000       0.000       0.000    
        0.000       0.000       0.000       0.000       0.000       0.000       0.000       0.000       0.000       0.000    
        0.000       0.000      9.6000E-04  8.8000E-04  8.0000E-04   0.000       0.000       0.000       0.000       0.000    
        0.000       0.000       0.000       0.000       0.000       0.000       0.000       0.000       0.000       0.000    
        0.000    
   3    0.000       0.000       0.000       0.000       0.000       0.000       0.000       0.000       0.000       0.000    
        0.000       0.000       0.000       0.000       0.000       0.000       0.000       0.000       0.000       0.000    
        0.000       0.000       0.000       0.000       0.000       0.000       0.000       0.000       0.000       0.000    
        0.000       0.000       0.000       0.000       0.000       0.000       0.000       0.000       0.000       0.000    
        0.000       0.000       0.000       0.000       0.000       0.000       0.000       0.000       0.000       0.000    
        0.000       0.000       0.000       0.000       0.000       0.000       0.000       0.000       0.000       0.000    
        0.000       0.000      8.8000E-04  8.8000E-04  8.0000E-04   0.000       0.000       0.000       0.000       0.000    
        0.000       0.000       0.000       0.000       0.000       0.000       0.000       0.000       0.000       0.000    
        0.000    
   4    0.000       0.000       0.000       0.000       0.000       0.000       0.000       0.000       0.000       0.000    
        0.000       0.000       0.000       0.000       0.000       0.000       0.000       0.000       0.000       0.000    
        0.000       0.000       0.000       0.000       0.000       0.000       0.000       0.000       0.000       0.000    
        0.000       0.000       0.000       0.000       0.000       0.000       0.000       0.000       0.000       0.000    
        0.000       0.000       0.000       0.000       0.000       0.000       0.000       0.000       0.000       0.000    
        0.000       0.000       0.000       0.000       0.000       0.000       0.000       0.000       0.000       0.000    
        0.000      8.8000E-04  8.8000E-04  8.0000E-04  8.0000E-04   0.000       0.000       0.000       0.000       0.000    
        0.000       0.000       0.000       0.000       0.000       0.000       0.000       0.000       0.000       0.000    
        0.000    
   5    0.000       0.000       0.000       0.000       0.000       0.000       0.000       0.000       0.000       0.000    
        0.000       0.000       0.000       0.000       0.000       0.000       0.000       0.000       0.000       0.000    
        0.000       0.000       0.000       0.000       0.000       0.000       0.000       0.000       0.000       0.000    
        0.000       0.000       0.000       0.000       0.000       0.000       0.000       0.000       0.000       0.000    
        0.000       0.000       0.000       0.000       0.000       0.000       0.000       0.000       0.000       0.000    
        0.000       0.000       0.000       0.000       0.000       0.000       0.000       0.000       0.000       0.000    
        0.000      8.8000E-04  8.0000E-04  8.0000E-04  8.0000E-04  8.0000E-04   0.000       0.000       0.000       0.000    
        0.000       0.000       0.000       0.000       0.000       0.000       0.000       0.000       0.000       0.000    
        0.000    
   6    0.000       0.000       0.000       0.000       0.000       0.000       0.000       0.000       0.000       0.000    
        0.000       0.000       0.000       0.000       0.000       0.000       0.000       0.000       0.000       0.000    
        0.000       0.000       0.000       0.000       0.000       0.000       0.000       0.000       0.000       0.000    
        0.000       0.000       0.000       0.000       0.000       0.000       0.000       0.000       0.000       0.000    
        0.000       0.000       0.000       0.000       0.000       0.000       0.000       0.000       0.000       0.000    
        0.000       0.000       0.000       0.000       0.000       0.000       0.000       0.000       0.000       0.000    
        0.000      8.8000E-04  8.0000E-04  8.0000E-04  8.0000E-04  8.0000E-04  8.0000E-04   0.000       0.000       0.000    
        0.000       0.000       0.000       0.000       0.000       0.000       0.000       0.000       0.000       0.000    
        0.000    
   7    0.000       0.000       0.000       0.000       0.000       0.000       0.000       0.000       0.000       0.000    
        0.000       0.000       0.000       0.000       0.000       0.000       0.000       0.000       0.000       0.000    
        0.000       0.000       0.000       0.000       0.000       0.000       0.000       0.000       0.000       0.000    
        0.000       0.000       0.000       0.000       0.000       0.000       0.000       0.000       0.000       0.000    
        0.000       0.000       0.000       0.000       0.000       0.000       0.000       0.000       0.000       0.000    
        0.000       0.000       0.000       0.000       0.000       0.000       0.000       0.000       0.000       0.000    
       8.8000E-04  8.8000E-04  8.0000E-04  8.0000E-04  8.0000E-04  8.0000E-04  8.0000E-04  8.0000E-04   0.000       0.000    
        0.000       0.000       0.000       0.000       0.000       0.000       0.000       0.000       0.000       0.000    
        0.000    
   8    0.000       0.000       0.000       0.000       0.000       0.000       0.000       0.000       0.000       0.000    
        0.000       0.000       0.000       0.000       0.000       0.000       0.000       0.000       0.000       0.000    
        0.000       0.000       0.000       0.000       0.000       0.000       0.000       0.000       0.000       0.000    
        0.000       0.000       0.000       0.000       0.000       0.000       0.000       0.000       0.000       0.000    
        0.000       0.000       0.000       0.000       0.000       0.000       0.000       0.000       0.000       0.000    
        0.000       0.000       0.000       0.000       0.000       0.000       0.000       0.000       0.000       0.000    
       8.8000E-04  8.8000E-04  8.0000E-04  8.0000E-04  8.0000E-04  8.0000E-04  8.0000E-04  8.0000E-04  8.0000E-04  8.0000E-04
       8.0000E-04   0.000       0.000       0.000       0.000       0.000       0.000       0.000       0.000       0.000    
        0.000    
   9    0.000       0.000       0.000       0.000       0.000       0.000       0.000       0.000       0.000       0.000    
        0.000       0.000       0.000       0.000       0.000       0.000       0.000       0.000       0.000       0.000    
        0.000       0.000       0.000       0.000       0.000       0.000       0.000       0.000       0.000       0.000    
        0.000       0.000       0.000       0.000       0.000       0.000       0.000       0.000       0.000       0.000    
        0.000       0.000       0.000       0.000       0.000       0.000       0.000       0.000      9.6000E-04  9.6000E-04
        0.000       0.000       0.000       0.000       0.000       0.000       0.000       0.000      8.8000E-04  8.8000E-04
       8.8000E-04  8.8000E-04  8.0000E-04  8.0000E-04  8.0000E-04  8.0000E-04  8.0000E-04  8.0000E-04  8.0000E-04  8.0000E-04
       8.0000E-04  8.0000E-04  8.0000E-04  8.0000E-04  8.0000E-04   0.000       0.000       0.000       0.000       0.000    
        0.000    
  10    0.000       0.000       0.000       0.000       0.000       0.000       0.000       0.000       0.000       0.000    
        0.000       0.000       0.000       0.000       0.000       0.000       0.000       0.000       0.000       0.000    
        0.000       0.000       0.000       0.000       0.000       0.000       0.000       0.000       0.000       0.000    
        0.000       0.000       0.000       0.000       0.000       0.000       0.000       0.000       0.000       0.000    
        0.000       0.000       0.000       0.000       0.000       0.000       0.000      9.6000E-04  9.6000E-04  9.6000E-04
       9.6000E-04  9.6000E-04  9.6000E-04   0.000       0.000       0.000      8.8000E-04  8.8000E-04  8.8000E-04  8.8000E-04
       8.8000E-04  8.0000E-04  8.0000E-04  8.0000E-04  8.0000E-04  8.0000E-04  8.0000E-04  8.0000E-04  8.0000E-04  8.0000E-04
       8.0000E-04  8.0000E-04  8.0000E-04  8.0000E-04  8.0000E-04  8.0000E-04   0.000       0.000       0.000       0.000    
        0.000    
  11    0.000       0.000       0.000       0.000       0.000       0.000       0.000       0.000       0.000       0.000    
        0.000       0.000       0.000       0.000       0.000       0.000       0.000       0.000       0.000       0.000    
        0.000       0.000       0.000       0.000       0.000       0.000       0.000       0.000       0.000       0.000    
        0.000       0.000       0.000       0.000       0.000       0.000       0.000       0.000       0.000       0.000    
        0.000       0.000       0.000       0.000       0.000       0.000      9.6000E-04  9.6000E-04  9.6000E-04  9.6000E-04
       9.6000E-04  9.6000E-04  8.8000E-04  8.8000E-04  8.8000E-04  8.8000E-04  8.8000E-04  8.8000E-04  8.8000E-04  8.8000E-04
       8.0000E-04  8.0000E-04  8.0000E-04  8.0000E-04  8.0000E-04  8.0000E-04  8.0000E-04  8.0000E-04  8.0000E-04  8.0000E-04
       8.0000E-04  8.0000E-04  8.0000E-04  8.0000E-04  8.0000E-04  8.0000E-04   0.000       0.000       0.000       0.000    
        0.000    
  12    0.000       0.000       0.000       0.000       0.000       0.000       0.000       0.000       0.000       0.000    
        0.000       0.000       0.000       0.000       0.000       0.000       0.000       0.000       0.000       0.000    
        0.000       0.000       0.000       0.000       0.000       0.000       0.000       0.000       0.000       0.000    
        0.000       0.000       0.000       0.000       0.000       0.000       0.000       0.000       0.000       0.000    
        0.000       0.000       0.000       0.000       0.000       0.000      9.6000E-04  9.6000E-04  9.6000E-04  8.8000E-04
       8.8000E-04  8.8000E-04  8.8000E-04  8.8000E-04  8.8000E-04  8.8000E-04  8.8000E-04  8.8000E-04  8.8000E-04  8.0000E-04
       8.0000E-04  8.0000E-04  8.0000E-04  8.0000E-04  8.0000E-04  8.0000E-04  8.0000E-04  8.0000E-04  8.0000E-04  8.0000E-04
       8.0000E-04  8.0000E-04  8.0000E-04  8.0000E-04  8.0000E-04  8.0000E-04  8.0000E-04   0.000       0.000       0.000    
        0.000    
  13    0.000       0.000       0.000       0.000       0.000       0.000       0.000       0.000       0.000       0.000    
        0.000       0.000       0.000       0.000       0.000       0.000       0.000       0.000       0.000       0.000    
        0.000       0.000       0.000       0.000       0.000       0.000       0.000       0.000       0.000       0.000    
        0.000       0.000       0.000       0.000       0.000       0.000       0.000       0.000       0.000       0.000    
        0.000       0.000       0.000       0.000      1.0400E-03  1.0400E-03  9.6000E-04  9.6000E-04  9.6000E-04  8.8000E-04
       8.8000E-04  8.8000E-04  8.8000E-04  8.8000E-04  8.8000E-04  8.8000E-04  8.8000E-04  8.8000E-04  8.0000E-04  8.0000E-04
       8.0000E-04  8.0000E-04  8.0000E-04  8.0000E-04  8.0000E-04  8.0000E-04  8.0000E-04  8.0000E-04  8.0000E-04  8.0000E-04
       8.0000E-04  8.0000E-04  8.0000E-04  8.0000E-04  8.0000E-04  8.0000E-04  8.0000E-04  8.0000E-04   0.000       0.000    
        0.000    
  14    0.000       0.000       0.000       0.000       0.000       0.000       0.000       0.000       0.000       0.000    
        0.000       0.000       0.000       0.000       0.000       0.000       0.000       0.000       0.000       0.000    
        0.000       0.000       0.000       0.000       0.000       0.000       0.000       0.000       0.000       0.000    
        0.000       0.000       0.000       0.000       0.000       0.000       0.000       0.000       0.000       0.000    
        0.000      1.0400E-03  1.0400E-03  1.0400E-03  1.0400E-03  9.6000E-04  9.6000E-04  9.6000E-04  8.8000E-04  8.8000E-04
       8.8000E-04  8.8000E-04  8.0000E-04  8.0000E-04  8.8000E-04  8.8000E-04  8.8000E-04  8.0000E-04  8.0000E-04  8.0000E-04
       8.0000E-04  8.0000E-04  8.0000E-04  8.0000E-04  8.0000E-04  8.0000E-04  8.0000E-04  8.0000E-04  8.0000E-04  8.0000E-04
       8.0000E-04  8.0000E-04  8.0000E-04  8.0000E-04  8.0000E-04  8.0000E-04  8.0000E-04  8.0000E-04  8.0000E-04   0.000    
        0.000    
  15    0.000       0.000       0.000       0.000       0.000       0.000       0.000       0.000       0.000       0.000    
        0.000       0.000       0.000       0.000       0.000       0.000       0.000       0.000       0.000       0.000    
        0.000       0.000       0.000       0.000       0.000       0.000       0.000       0.000       0.000       0.000    
        0.000       0.000       0.000       0.000       0.000       0.000       0.000       0.000       0.000       0.000    
       1.1200E-03  1.0400E-03  1.0400E-03  1.0400E-03  9.6000E-04  9.6000E-04  9.6000E-04  8.8000E-04  8.8000E-04  8.8000E-04
       8.8000E-04  8.8000E-04  8.0000E-04  8.0000E-04  8.0000E-04  8.0000E-04  8.0000E-04  8.0000E-04  8.0000E-04  8.0000E-04
       8.0000E-04  8.0000E-04  8.0000E-04  8.0000E-04  8.0000E-04  8.0000E-04  8.0000E-04  8.0000E-04  8.0000E-04  8.0000E-04
       8.0000E-04  8.0000E-04  8.0000E-04  8.0000E-04  8.0000E-04  8.0000E-04  8.0000E-04  8.0000E-04  8.0000E-04  8.0000E-04
        0.000    
  16    0.000       0.000       0.000       0.000       0.000       0.000       0.000       0.000       0.000       0.000    
        0.000       0.000       0.000       0.000       0.000       0.000       0.000       0.000       0.000       0.000    
        0.000       0.000       0.000       0.000       0.000       0.000       0.000       0.000       0.000       0.000    
        0.000       0.000       0.000       0.000       0.000       0.000       0.000       0.000       0.000      1.1200E-03
       1.1200E-03  1.1200E-03  1.1200E-03  1.0400E-03  1.0400E-03  9.6000E-04  9.6000E-04  8.8000E-04  8.8000E-04  8.8000E-04
       8.8000E-04  8.0000E-04  8.0000E-04  8.0000E-04  8.0000E-04  8.0000E-04  8.0000E-04  8.0000E-04  8.0000E-04  8.0000E-04
       8.0000E-04  8.0000E-04  8.0000E-04  8.0000E-04  8.0000E-04  8.0000E-04  8.0000E-04  8.0000E-04  8.0000E-04  8.0000E-04
       8.0000E-04  8.0000E-04  8.0000E-04  8.0000E-04  8.0000E-04  8.0000E-04  8.0000E-04  8.0000E-04  8.0000E-04  8.0000E-04
        0.000    
  17    0.000       0.000       0.000       0.000       0.000       0.000       0.000       0.000       0.000       0.000    
        0.000       0.000       0.000       0.000       0.000       0.000       0.000       0.000       0.000       0.000    
        0.000       0.000       0.000       0.000       0.000       0.000       0.000       0.000       0.000       0.000    
        0.000       0.000       0.000       0.000       0.000       0.000       0.000       0.000       0.000      1.1200E-03
       1.1200E-03  1.1200E-03  1.1200E-03  1.0400E-03  1.0400E-03  9.6000E-04  9.6000E-04  9.6000E-04  8.8000E-04  8.8000E-04
       8.8000E-04  8.0000E-04  8.0000E-04  8.0000E-04  8.0000E-04  8.0000E-04  8.0000E-04  8.0000E-04  8.0000E-04  8.0000E-04
       8.0000E-04  8.0000E-04  8.0000E-04  8.0000E-04  8.0000E-04  8.0000E-04  8.0000E-04  8.0000E-04  8.0000E-04  8.0000E-04
       8.0000E-04  8.0000E-04  8.0000E-04  8.0000E-04  8.0000E-04  8.0000E-04  8.0000E-04  8.0000E-04  8.0000E-04  8.0000E-04
        0.000    
  18    0.000       0.000       0.000       0.000       0.000       0.000       0.000       0.000       0.000       0.000    
        0.000       0.000       0.000       0.000       0.000       0.000       0.000       0.000       0.000       0.000    
        0.000       0.000       0.000       0.000       0.000       0.000       0.000       0.000       0.000       0.000    
        0.000       0.000       0.000       0.000       0.000       0.000       0.000       0.000       0.000      1.2000E-03
       1.1200E-03  1.1200E-03  1.1200E-03  1.0400E-03  9.6000E-04  9.6000E-04  9.6000E-04  8.8000E-04  8.8000E-04  8.8000E-04
       8.8000E-04  8.0000E-04  8.0000E-04  8.0000E-04  8.0000E-04  8.0000E-04  8.0000E-04  8.0000E-04  8.0000E-04  8.0000E-04
       8.0000E-04  8.0000E-04  8.0000E-04  8.0000E-04  8.0000E-04  8.0000E-04  8.0000E-04  8.0000E-04  8.0000E-04  8.0000E-04
       8.0000E-04  8.0000E-04  8.0000E-04  8.0000E-04  8.0000E-04  8.0000E-04  8.0000E-04  8.0000E-04  8.0000E-04  8.0000E-04
        0.000    
  19    0.000       0.000       0.000       0.000       0.000       0.000       0.000       0.000       0.000       0.000    
        0.000       0.000       0.000       0.000       0.000       0.000       0.000       0.000       0.000       0.000    
        0.000       0.000       0.000       0.000       0.000       0.000       0.000       0.000       0.000       0.000    
        0.000       0.000       0.000       0.000      1.2000E-03  1.2000E-03  1.2000E-03  1.2000E-03  1.1200E-03  1.1200E-03
       1.1200E-03  1.0400E-03  1.0400E-03  9.6000E-04  9.6000E-04  9.6000E-04  8.8000E-04  8.8000E-04  8.8000E-04  8.0000E-04
       8.0000E-04  8.0000E-04  8.0000E-04  8.0000E-04  8.0000E-04  8.0000E-04  8.0000E-04  8.0000E-04  8.0000E-04  8.0000E-04
       8.0000E-04  8.0000E-04  8.0000E-04  8.0000E-04  8.0000E-04  8.0000E-04  8.0000E-04  8.0000E-04  8.0000E-04  8.0000E-04
       8.0000E-04  8.0000E-04  8.0000E-04  8.0000E-04  8.0000E-04  8.0000E-04  8.0000E-04  8.0000E-04  8.0000E-04  8.0000E-04
       8.0000E-04
  20    0.000       0.000       0.000       0.000       0.000       0.000       0.000       0.000       0.000       0.000    
        0.000       0.000       0.000       0.000       0.000       0.000       0.000       0.000       0.000       0.000    
        0.000       0.000       0.000       0.000       0.000       0.000       0.000       0.000       0.000       0.000    
        0.000       0.000      1.2000E-03  1.2000E-03  1.1200E-03  1.1200E-03  1.1200E-03  1.1200E-03  1.1200E-03  1.0400E-03
       1.0400E-03  9.6000E-04  9.6000E-04  9.6000E-04  8.8000E-04  8.8000E-04  8.8000E-04  8.8000E-04  8.0000E-04  8.0000E-04
       8.0000E-04  8.0000E-04  8.0000E-04  8.0000E-04  8.0000E-04  8.0000E-04  8.0000E-04  8.0000E-04  8.0000E-04  8.0000E-04
       8.0000E-04  8.0000E-04  8.0000E-04  8.0000E-04  8.0000E-04  8.0000E-04  8.0000E-04  8.0000E-04  8.0000E-04  8.0000E-04
       8.0000E-04  8.0000E-04  8.0000E-04  8.0000E-04  8.0000E-04  8.0000E-04  8.0000E-04  8.0000E-04  8.0000E-04  8.0000E-04
       8.0000E-04
  21    0.000       0.000       0.000       0.000       0.000       0.000       0.000       0.000       0.000       0.000    
        0.000       0.000       0.000       0.000       0.000       0.000       0.000       0.000       0.000       0.000    
        0.000       0.000       0.000       0.000       0.000       0.000       0.000       0.000       0.000      1.2800E-03
       1.2800E-03  1.2000E-03  1.1200E-03  1.1200E-03  1.0400E-03  1.0400E-03  1.0400E-03  1.0400E-03  1.0400E-03  9.6000E-04
       9.6000E-04  9.6000E-04  8.8000E-04  8.8000E-04  8.8000E-04  8.0000E-04  8.0000E-04  8.0000E-04  8.0000E-04  8.0000E-04
       8.0000E-04  8.0000E-04  8.0000E-04  8.0000E-04  8.0000E-04  8.0000E-04  8.0000E-04  8.0000E-04  8.0000E-04  8.0000E-04
       8.0000E-04  8.0000E-04  8.0000E-04  8.0000E-04  8.0000E-04  8.0000E-04  8.0000E-04  8.0000E-04  8.0000E-04  8.0000E-04
       8.0000E-04  8.0000E-04  8.0000E-04  8.0000E-04  8.0000E-04  8.0000E-04  8.0000E-04  8.0000E-04  8.0000E-04  8.0000E-04
       8.0000E-04
  22    0.000       0.000       0.000       0.000       0.000       0.000       0.000       0.000       0.000       0.000    
        0.000       0.000       0.000       0.000       0.000       0.000       0.000       0.000       0.000       0.000    
        0.000       0.000       0.000       0.000       0.000       0.000      1.2800E-03  1.2800E-03  1.2800E-03  1.2000E-03
       1.1200E-03  1.1200E-03  1.0400E-03  1.0400E-03  9.6000E-04  9.6000E-04  9.6000E-04  9.6000E-04  9.6000E-04  9.6000E-04
       8.8000E-04  8.8000E-04  8.8000E-04  8.0000E-04  8.0000E-04  8.0000E-04  8.0000E-04  8.0000E-04  8.0000E-04  8.0000E-04
       8.0000E-04  8.0000E-04  8.0000E-04  8.0000E-04  8.0000E-04  8.0000E-04  8.0000E-04  8.0000E-04  8.0000E-04  8.0000E-04
       8.0000E-04  8.0000E-04  8.0000E-04  8.0000E-04  8.0000E-04  8.0000E-04  8.0000E-04  8.0000E-04  8.0000E-04  8.0000E-04
       8.0000E-04  8.0000E-04  8.0000E-04  8.0000E-04  8.0000E-04  8.0000E-04  8.0000E-04  8.0000E-04  8.0000E-04  8.0000E-04
       8.0000E-04
  23    0.000       0.000       0.000       0.000       0.000       0.000       0.000       0.000       0.000       0.000    
        0.000       0.000       0.000       0.000       0.000       0.000       0.000       0.000       0.000       0.000    
        0.000       0.000       0.000       0.000      1.3600E-03  1.3600E-03  1.2800E-03  1.2000E-03  1.2000E-03  1.1200E-03
       1.0400E-03  1.0400E-03  1.0400E-03  9.6000E-04  9.6000E-04  8.8000E-04  8.8000E-04  8.8000E-04  8.8000E-04  8.8000E-04
       8.8000E-04  8.0000E-04  8.0000E-04  8.0000E-04  8.0000E-04  8.0000E-04  8.0000E-04  8.0000E-04  8.0000E-04  8.0000E-04
       8.0000E-04  8.0000E-04  8.0000E-04  8.0000E-04  8.0000E-04  8.0000E-04  8.0000E-04  8.0000E-04  8.0000E-04  8.0000E-04
       8.0000E-04  8.0000E-04  8.0000E-04  8.0000E-04  8.0000E-04  8.0000E-04  8.0000E-04  8.0000E-04  8.0000E-04  8.0000E-04
       8.0000E-04  8.0000E-04  8.0000E-04  8.0000E-04  8.0000E-04  8.0000E-04  8.0000E-04  8.0000E-04  8.0000E-04  8.0000E-04
       8.0000E-04
  24    0.000       0.000       0.000       0.000       0.000       0.000       0.000       0.000       0.000       0.000    
        0.000       0.000       0.000       0.000       0.000       0.000       0.000       0.000       0.000       0.000    
        0.000       0.000      1.4400E-03  1.3600E-03  1.3600E-03  1.2800E-03  1.2000E-03  1.1200E-03  1.1200E-03  1.0400E-03
       9.6000E-04  9.6000E-04  9.6000E-04  9.6000E-04  8.8000E-04  8.8000E-04  8.8000E-04  8.8000E-04  8.8000E-04  8.0000E-04
       8.0000E-04  8.0000E-04  8.0000E-04  8.0000E-04  8.0000E-04  8.0000E-04  8.0000E-04  8.0000E-04  8.0000E-04  8.0000E-04
       8.0000E-04  8.0000E-04  8.0000E-04  8.0000E-04  8.0000E-04  8.0000E-04  8.0000E-04  8.0000E-04  8.0000E-04  8.0000E-04
       8.0000E-04  8.0000E-04  8.0000E-04  8.0000E-04  8.0000E-04  8.0000E-04  8.0000E-04  8.0000E-04  8.0000E-04  8.0000E-04
       8.0000E-04  8.0000E-04  8.0000E-04  8.0000E-04  8.0000E-04  8.0000E-04  8.0000E-04  8.0000E-04  8.0000E-04  8.0000E-04
       8.0000E-04
  25    0.000       0.000       0.000       0.000       0.000       0.000       0.000       0.000       0.000       0.000    
        0.000       0.000       0.000       0.000       0.000       0.000       0.000       0.000       0.000       0.000    
       1.5200E-03  1.4400E-03  1.3600E-03  1.2800E-03  1.2800E-03  1.2000E-03  1.1200E-03  1.0400E-03  1.0400E-03  9.6000E-04
       9.6000E-04  9.6000E-04  8.8000E-04  8.8000E-04  8.8000E-04  8.8000E-04  8.0000E-04  8.0000E-04  8.0000E-04  8.0000E-04
       8.0000E-04  8.0000E-04  8.0000E-04  8.0000E-04  8.0000E-04  8.0000E-04  8.0000E-04  8.0000E-04  8.0000E-04  8.0000E-04
       8.0000E-04  8.0000E-04  8.0000E-04  8.0000E-04  8.0000E-04  8.0000E-04  8.0000E-04  8.0000E-04  8.0000E-04  8.0000E-04
       8.0000E-04  8.0000E-04  8.0000E-04  8.0000E-04  8.0000E-04  8.0000E-04  8.0000E-04  8.0000E-04  8.0000E-04  8.0000E-04
       8.0000E-04  8.0000E-04  8.0000E-04  8.0000E-04  8.0000E-04  8.0000E-04  8.0000E-04  8.0000E-04  8.0000E-04  8.0000E-04
        0.000    
  26    0.000       0.000       0.000       0.000       0.000       0.000       0.000       0.000       0.000       0.000    
        0.000       0.000       0.000       0.000       0.000       0.000       0.000       0.000      1.6000E-03  1.5200E-03
       1.5200E-03  1.3600E-03  1.2800E-03  1.2800E-03  1.2000E-03  1.2000E-03  1.1200E-03  1.0400E-03  9.6000E-04  8.8000E-04
       8.8000E-04  8.8000E-04  8.8000E-04  8.8000E-04  8.0000E-04  8.0000E-04  8.0000E-04  8.0000E-04  8.0000E-04  8.0000E-04
       8.0000E-04  8.0000E-04  8.0000E-04  8.0000E-04  8.0000E-04  8.0000E-04  8.0000E-04  8.0000E-04  8.0000E-04  8.0000E-04
       8.0000E-04  8.0000E-04  8.0000E-04  8.0000E-04  8.0000E-04  8.0000E-04  8.0000E-04  8.0000E-04  8.0000E-04  8.0000E-04
       8.0000E-04  8.0000E-04  8.0000E-04  8.0000E-04  8.0000E-04  8.0000E-04  8.0000E-04  8.0000E-04  8.0000E-04  8.0000E-04
       8.0000E-04  8.0000E-04  8.0000E-04  8.0000E-04  8.0000E-04  8.0000E-04  8.0000E-04  8.0000E-04  8.0000E-04   0.000    
        0.000    
  27    0.000       0.000       0.000       0.000       0.000       0.000       0.000       0.000       0.000       0.000    
        0.000       0.000       0.000       0.000       0.000       0.000       0.000      1.5200E-03  1.5200E-03  1.5200E-03
       1.4400E-03  1.3600E-03  1.2800E-03  1.2000E-03  1.2000E-03  1.1200E-03  1.0400E-03  9.6000E-04  8.8000E-04  8.8000E-04
       8.8000E-04  8.8000E-04  8.0000E-04  8.0000E-04  8.0000E-04  8.0000E-04  8.0000E-04  8.0000E-04  8.0000E-04  8.0000E-04
       8.0000E-04  8.0000E-04  8.0000E-04  8.0000E-04  8.0000E-04  8.0000E-04  8.0000E-04  8.0000E-04  8.0000E-04  8.0000E-04
       8.0000E-04  8.0000E-04  8.0000E-04  8.0000E-04  8.0000E-04  8.0000E-04  8.0000E-04  8.0000E-04  8.0000E-04  8.0000E-04
       8.0000E-04  8.0000E-04  8.0000E-04  8.0000E-04  8.0000E-04  8.0000E-04  8.0000E-04  8.0000E-04  8.0000E-04  8.0000E-04
       8.0000E-04  8.0000E-04  8.0000E-04  8.0000E-04  8.0000E-04  8.0000E-04   0.000       0.000       0.000       0.000    
        0.000    
  28    0.000       0.000       0.000       0.000       0.000       0.000       0.000       0.000       0.000       0.000    
        0.000       0.000       0.000       0.000       0.000       0.000      1.5200E-03  1.5200E-03  1.5200E-03  1.4400E-03
       1.4400E-03  1.3600E-03  1.2800E-03  1.2000E-03  1.1200E-03  1.1200E-03  1.0400E-03  9.6000E-04  8.8000E-04  8.8000E-04
       8.0000E-04  8.0000E-04  8.0000E-04  8.0000E-04  8.0000E-04  8.0000E-04  8.0000E-04  8.0000E-04  8.0000E-04  8.0000E-04
       8.0000E-04  8.0000E-04  8.0000E-04  8.0000E-04  8.0000E-04  8.0000E-04  8.0000E-04  8.0000E-04  8.0000E-04  8.0000E-04
       8.0000E-04  8.0000E-04  8.0000E-04  8.0000E-04  8.0000E-04  8.0000E-04  8.0000E-04  8.0000E-04  8.0000E-04  8.0000E-04
       8.0000E-04  8.0000E-04  8.0000E-04  8.0000E-04  8.0000E-04  8.0000E-04  8.0000E-04  8.0000E-04  8.0000E-04  8.0000E-04
       8.0000E-04  8.0000E-04  8.0000E-04  8.0000E-04  8.0000E-04  8.0000E-04   0.000       0.000       0.000       0.000    
        0.000    
  29    0.000       0.000       0.000       0.000       0.000       0.000       0.000       0.000       0.000       0.000    
        0.000      1.8400E-03  1.7600E-03  1.6800E-03  1.6000E-03  1.6000E-03  1.5200E-03  1.5200E-03  1.4400E-03  1.4400E-03
       1.3600E-03  1.2800E-03  1.2000E-03  1.2000E-03  1.1200E-03  1.0400E-03  1.0400E-03  9.6000E-04  8.8000E-04  8.8000E-04
       8.0000E-04  8.0000E-04  8.0000E-04  8.0000E-04  8.0000E-04  8.0000E-04  8.0000E-04  8.0000E-04  8.0000E-04  8.0000E-04
       8.0000E-04  8.0000E-04  8.0000E-04  8.0000E-04  8.0000E-04  8.0000E-04  8.0000E-04  8.0000E-04  8.0000E-04  8.0000E-04
       8.0000E-04  8.0000E-04  8.0000E-04  8.0000E-04  8.0000E-04  8.0000E-04  8.0000E-04  8.0000E-04  8.0000E-04  8.0000E-04
       8.0000E-04  8.0000E-04  8.0000E-04  8.0000E-04  8.0000E-04  8.0000E-04  8.0000E-04  8.0000E-04  8.0000E-04  8.0000E-04
       8.0000E-04  8.0000E-04  8.0000E-04  8.0000E-04  8.0000E-04  8.0000E-04   0.000       0.000       0.000       0.000    
        0.000    
  30    0.000       0.000       0.000       0.000       0.000       0.000       0.000       0.000       0.000       0.000    
       2.0000E-03  1.8400E-03  1.7600E-03  1.6800E-03  1.6000E-03  1.5200E-03  1.5200E-03  1.4400E-03  1.4400E-03  1.4400E-03
       1.3600E-03  1.2800E-03  1.2000E-03  1.2000E-03  1.1200E-03  1.0400E-03  9.6000E-04  9.6000E-04  8.8000E-04  8.8000E-04
       8.0000E-04  8.0000E-04  8.0000E-04  8.0000E-04  8.0000E-04  8.0000E-04  8.0000E-04  8.0000E-04  8.0000E-04  8.0000E-04
       8.0000E-04  8.0000E-04  8.0000E-04  8.0000E-04  8.0000E-04  8.0000E-04  8.0000E-04  8.0000E-04  8.0000E-04  8.0000E-04
       8.0000E-04  8.0000E-04  8.0000E-04  8.0000E-04  8.0000E-04  8.0000E-04  8.0000E-04  8.0000E-04  8.0000E-04  8.0000E-04
       8.0000E-04  8.0000E-04  8.0000E-04  8.0000E-04  8.0000E-04  8.0000E-04  8.0000E-04  8.0000E-04  8.0000E-04  8.0000E-04
       8.0000E-04  8.0000E-04  8.0000E-04  8.0000E-04  8.0000E-04  8.0000E-04   0.000       0.000       0.000       0.000    
        0.000    
  31    0.000       0.000       0.000       0.000       0.000       0.000       0.000       0.000       0.000      2.0800E-03
       2.0000E-03  1.8400E-03  1.7600E-03  1.6800E-03  1.6000E-03  1.5200E-03  1.5200E-03  1.4400E-03  1.4400E-03  1.3600E-03
       1.3600E-03  1.2800E-03  1.2000E-03  1.2000E-03  1.1200E-03  1.0400E-03  9.6000E-04  9.6000E-04  8.8000E-04  8.8000E-04
       8.0000E-04  8.0000E-04  8.0000E-04  8.0000E-04  8.0000E-04  8.0000E-04  8.0000E-04  8.0000E-04  8.0000E-04  8.0000E-04
       8.0000E-04  8.0000E-04  8.0000E-04  8.0000E-04  8.0000E-04  8.0000E-04  8.0000E-04  8.0000E-04  8.0000E-04  8.0000E-04
       8.0000E-04  8.0000E-04  8.0000E-04  8.0000E-04  8.0000E-04  8.0000E-04  8.0000E-04  8.0000E-04  8.0000E-04  8.0000E-04
       8.0000E-04  8.0000E-04  8.0000E-04  8.0000E-04  8.0000E-04  8.0000E-04  8.0000E-04  8.0000E-04  8.0000E-04  8.0000E-04
       8.0000E-04  8.0000E-04  8.0000E-04  8.0000E-04  8.0000E-04  8.0000E-04   0.000       0.000       0.000       0.000    
        0.000    
  32    0.000       0.000       0.000       0.000       0.000       0.000       0.000       0.000      2.0800E-03  2.0800E-03
       2.0000E-03  1.8400E-03  1.7600E-03  1.6800E-03  1.6000E-03  1.5200E-03  1.5200E-03  1.4400E-03  1.4400E-03  1.4400E-03
       1.3600E-03  1.2800E-03  1.2800E-03  1.2000E-03  1.1200E-03  1.0400E-03  9.6000E-04  9.6000E-04  9.6000E-04  8.8000E-04
       8.0000E-04  8.0000E-04  8.0000E-04  8.0000E-04  8.0000E-04  8.0000E-04  8.0000E-04  8.0000E-04  8.0000E-04  8.0000E-04
       8.0000E-04  8.0000E-04  8.0000E-04  8.0000E-04  8.0000E-04  8.0000E-04  8.0000E-04  8.0000E-04  8.0000E-04  8.0000E-04
       8.0000E-04  8.0000E-04  8.0000E-04  8.0000E-04  8.0000E-04  8.0000E-04  8.0000E-04  8.0000E-04  8.0000E-04  8.0000E-04
       8.0000E-04  8.0000E-04  8.0000E-04  8.0000E-04  8.0000E-04  8.0000E-04  8.0000E-04  8.0000E-04  8.0000E-04  8.0000E-04
       8.0000E-04  8.0000E-04  8.0000E-04  8.0000E-04  8.0000E-04  8.0000E-04   0.000       0.000       0.000       0.000    
        0.000    
  33    0.000       0.000       0.000       0.000       0.000       0.000       0.000       0.000      2.0800E-03  2.0800E-03
       2.0000E-03  1.9200E-03  1.7600E-03  1.6800E-03  1.6000E-03  1.5200E-03  1.5200E-03  1.5200E-03  1.4400E-03  1.4400E-03
       1.3600E-03  1.3600E-03  1.2800E-03  1.2000E-03  1.1200E-03  1.0400E-03  1.0400E-03  9.6000E-04  9.6000E-04  8.8000E-04
       8.8000E-04  8.0000E-04  8.0000E-04  8.0000E-04  8.0000E-04  8.0000E-04  8.0000E-04  8.0000E-04  8.0000E-04  8.0000E-04
       8.0000E-04  8.0000E-04  8.0000E-04  8.0000E-04  8.0000E-04  8.0000E-04  8.0000E-04  8.0000E-04  8.0000E-04  8.0000E-04
       8.0000E-04  8.0000E-04  8.0000E-04  8.0000E-04  8.0000E-04  8.0000E-04  8.0000E-04  8.0000E-04  8.0000E-04  8.0000E-04
       8.0000E-04  8.0000E-04  8.0000E-04  8.0000E-04  8.0000E-04  8.0000E-04  8.0000E-04  8.0000E-04  8.0000E-04  8.0000E-04
       8.0000E-04  8.0000E-04  8.0000E-04  8.0000E-04  8.0000E-04  8.0000E-04   0.000       0.000       0.000       0.000    
        0.000    
  34    0.000       0.000       0.000       0.000       0.000       0.000      2.0800E-03  2.0800E-03  2.0800E-03  2.0800E-03
       2.0000E-03  1.8400E-03  1.7600E-03  1.6800E-03  1.6000E-03  1.6000E-03  1.6000E-03  1.5200E-03  1.5200E-03  1.5200E-03
       1.4400E-03  1.3600E-03  1.2800E-03  1.2000E-03  1.1200E-03  1.1200E-03  1.0400E-03  1.0400E-03  1.0400E-03  9.6000E-04
       8.8000E-04  8.0000E-04  8.0000E-04  8.0000E-04  8.0000E-04  8.0000E-04  8.0000E-04  8.0000E-04  8.0000E-04  8.0000E-04
       8.0000E-04  8.0000E-04  8.0000E-04  8.0000E-04  8.0000E-04  8.0000E-04  8.0000E-04  8.0000E-04  8.0000E-04  8.0000E-04
       8.0000E-04  8.0000E-04  8.0000E-04  8.0000E-04  8.0000E-04  8.0000E-04  8.0000E-04  8.0000E-04  8.0000E-04  8.0000E-04
       8.0000E-04  8.0000E-04  8.0000E-04  8.0000E-04  8.0000E-04  8.0000E-04  8.0000E-04  8.0000E-04  8.0000E-04  8.0000E-04
       8.0000E-04  8.0000E-04  8.0000E-04  8.0000E-04  8.0000E-04  8.0000E-04   0.000       0.000       0.000       0.000    
        0.000    
  35    0.000       0.000       0.000       0.000       0.000      2.1600E-03  2.0800E-03  2.0800E-03  2.0800E-03  2.0000E-03
       1.9200E-03  1.8400E-03  1.7600E-03  1.6800E-03  1.6000E-03  1.6000E-03  1.6000E-03  1.6000E-03  1.5200E-03  1.5200E-03
       1.4400E-03  1.3600E-03  1.2800E-03  1.2000E-03  1.1200E-03  1.1200E-03  1.0400E-03  1.0400E-03  1.0400E-03  9.6000E-04
       8.8000E-04  8.8000E-04  8.0000E-04  8.0000E-04  8.0000E-04  8.0000E-04  8.0000E-04  8.0000E-04  8.0000E-04  8.0000E-04
       8.0000E-04  8.0000E-04  8.0000E-04  8.0000E-04  8.0000E-04  8.0000E-04  8.0000E-04  8.0000E-04  8.0000E-04  8.0000E-04
       8.0000E-04  8.0000E-04  8.0000E-04  8.0000E-04  8.0000E-04  8.0000E-04  8.0000E-04  8.0000E-04  8.0000E-04  8.0000E-04
       8.0000E-04  8.0000E-04  8.0000E-04  8.0000E-04  8.0000E-04  8.0000E-04  8.0000E-04  8.0000E-04  8.0000E-04  8.0000E-04
       8.0000E-04  8.0000E-04  8.0000E-04  8.0000E-04  8.0000E-04  8.0000E-04   0.000       0.000       0.000       0.000    
        0.000    
  36    0.000       0.000       0.000       0.000       0.000      2.1600E-03  2.0800E-03  2.0800E-03  2.0000E-03  1.9200E-03
       1.8400E-03  1.7600E-03  1.6800E-03  1.6000E-03  1.6000E-03  1.6000E-03  1.5200E-03  1.5200E-03  1.5200E-03  1.5200E-03
       1.5200E-03  1.4400E-03  1.2800E-03  1.2000E-03  1.2000E-03  1.1200E-03  1.0400E-03  1.0400E-03  9.6000E-04  9.6000E-04
       8.8000E-04  8.8000E-04  8.0000E-04  8.0000E-04  8.0000E-04  8.0000E-04  8.0000E-04  8.0000E-04  8.0000E-04  8.0000E-04
       8.0000E-04  8.0000E-04  8.0000E-04  8.0000E-04  8.0000E-04  8.0000E-04  8.0000E-04  8.0000E-04  8.0000E-04  8.0000E-04
       8.0000E-04  8.0000E-04  8.0000E-04  8.0000E-04  8.0000E-04  8.0000E-04  8.0000E-04  8.0000E-04  8.0000E-04  8.0000E-04
       8.0000E-04  8.0000E-04  8.0000E-04  8.0000E-04  8.0000E-04  8.0000E-04  8.0000E-04  8.0000E-04  8.0000E-04  8.0000E-04
       8.0000E-04  8.0000E-04  8.0000E-04  8.0000E-04  8.0000E-04  8.0000E-04   0.000       0.000       0.000       0.000    
        0.000    
  37    0.000       0.000       0.000       0.000       0.000      2.1600E-03  2.0800E-03  2.0800E-03  2.0000E-03  1.9200E-03
       1.7600E-03  1.6800E-03  1.6000E-03  1.6000E-03  1.5200E-03  1.5200E-03  1.4400E-03  1.4400E-03  1.4400E-03  1.4400E-03
       1.4400E-03  1.4400E-03  1.2800E-03  1.2000E-03  1.2000E-03  1.2000E-03  1.1200E-03  1.0400E-03  1.0400E-03  9.6000E-04
       9.6000E-04  8.8000E-04  8.8000E-04  8.0000E-04  8.0000E-04  8.0000E-04  8.0000E-04  8.0000E-04  8.0000E-04  8.0000E-04
       8.0000E-04  8.0000E-04  8.0000E-04  8.0000E-04  8.0000E-04  8.0000E-04  8.0000E-04  8.0000E-04  8.0000E-04  8.0000E-04
       8.0000E-04  8.0000E-04  8.0000E-04  8.0000E-04  8.0000E-04  8.0000E-04  8.0000E-04  8.0000E-04  8.0000E-04  8.0000E-04
       8.0000E-04  8.0000E-04  8.0000E-04  8.0000E-04  8.0000E-04  8.0000E-04  8.0000E-04  8.0000E-04  8.0000E-04  8.0000E-04
       8.0000E-04  8.0000E-04  8.0000E-04  8.0000E-04  8.0000E-04  8.0000E-04   0.000       0.000       0.000       0.000    
        0.000    
  38    0.000       0.000       0.000       0.000       0.000      2.1600E-03  2.0800E-03  2.0800E-03  1.9200E-03  1.8400E-03
       1.7600E-03  1.6800E-03  1.6000E-03  1.5200E-03  1.5200E-03  1.5200E-03  1.4400E-03  1.4400E-03  1.4400E-03  1.4400E-03
       1.3600E-03  1.3600E-03  1.2800E-03  1.2800E-03  1.2800E-03  1.2000E-03  1.1200E-03  1.1200E-03  1.0400E-03  1.0400E-03
       9.6000E-04  8.8000E-04  8.8000E-04  8.0000E-04  8.0000E-04  8.0000E-04  8.0000E-04  8.0000E-04  8.0000E-04  8.0000E-04
       8.0000E-04  8.0000E-04  8.0000E-04  8.0000E-04  8.0000E-04  8.0000E-04  8.0000E-04  8.0000E-04  8.0000E-04  8.0000E-04
       8.0000E-04  8.0000E-04  8.0000E-04  8.0000E-04  8.0000E-04  8.0000E-04  8.0000E-04  8.0000E-04  8.0000E-04  8.0000E-04
       8.0000E-04  8.0000E-04  8.0000E-04  8.0000E-04  8.0000E-04  8.0000E-04  8.0000E-04  8.0000E-04  8.0000E-04  8.0000E-04
       8.0000E-04  8.0000E-04  8.0000E-04  8.0000E-04  8.0000E-04  8.0000E-04  8.0000E-04   0.000       0.000       0.000    
        0.000    
  39    0.000       0.000       0.000       0.000       0.000      2.1600E-03  2.0800E-03  2.0000E-03  1.9200E-03  1.8400E-03
       1.6800E-03  1.6800E-03  1.6000E-03  1.5200E-03  1.5200E-03  1.5200E-03  1.4400E-03  1.4400E-03  1.4400E-03  1.4400E-03
       1.4400E-03  1.4400E-03  1.3600E-03  1.3600E-03  1.2800E-03  1.2000E-03  1.2000E-03  1.1200E-03  1.0400E-03  1.0400E-03
       9.6000E-04  8.8000E-04  8.8000E-04  8.0000E-04  8.0000E-04  8.0000E-04  8.0000E-04  8.0000E-04  8.0000E-04  8.0000E-04
       8.0000E-04  8.0000E-04  8.0000E-04  8.0000E-04  8.0000E-04  8.0000E-04  8.0000E-04  8.0000E-04  8.0000E-04  8.0000E-04
       8.0000E-04  8.0000E-04  8.0000E-04  8.0000E-04  8.0000E-04  8.0000E-04  8.0000E-04  8.0000E-04  8.0000E-04  8.0000E-04
       8.0000E-04  8.0000E-04  8.0000E-04  8.0000E-04  8.0000E-04  8.0000E-04  8.0000E-04  8.0000E-04  8.0000E-04  8.0000E-04
       8.0000E-04  8.0000E-04  8.0000E-04  8.0000E-04  8.0000E-04  8.0000E-04  8.0000E-04   0.000       0.000       0.000    
        0.000    
  40    0.000       0.000       0.000       0.000      2.1600E-03  2.1600E-03  2.0800E-03  1.9200E-03  1.8400E-03  1.7600E-03
       1.6800E-03  1.6000E-03  1.6000E-03  1.5200E-03  1.5200E-03  1.5200E-03  1.5200E-03  1.5200E-03  1.5200E-03  1.5200E-03
       1.5200E-03  1.4400E-03  1.4400E-03  1.3600E-03  1.2800E-03  1.2800E-03  1.2000E-03  1.1200E-03  1.0400E-03  1.0400E-03
       9.6000E-04  8.8000E-04  8.8000E-04  8.8000E-04  8.0000E-04  8.0000E-04  8.0000E-04  8.0000E-04  8.0000E-04  8.0000E-04
       8.0000E-04  8.0000E-04  8.0000E-04  8.0000E-04  8.0000E-04  8.0000E-04  8.0000E-04  8.0000E-04  8.0000E-04  8.0000E-04
       8.0000E-04  8.0000E-04  8.0000E-04  8.0000E-04  8.0000E-04  8.0000E-04  8.0000E-04  8.0000E-04  8.0000E-04  8.0000E-04
       8.0000E-04  8.0000E-04  8.0000E-04  8.0000E-04  8.0000E-04  8.0000E-04  8.0000E-04  8.0000E-04  8.0000E-04  8.0000E-04
       8.0000E-04  8.0000E-04  8.0000E-04  8.0000E-04  8.0000E-04  8.0000E-04  8.0000E-04  8.0000E-04   0.000       0.000    
        0.000    
  41    0.000       0.000       0.000       0.000      2.1600E-03  2.0800E-03  2.0000E-03  1.9200E-03  1.8400E-03  1.6800E-03
       1.6000E-03  1.6000E-03  1.6000E-03  1.6000E-03  1.6000E-03  1.5200E-03  1.5200E-03  1.5200E-03  1.5200E-03  1.5200E-03
       1.5200E-03  1.4400E-03  1.4400E-03  1.3600E-03  1.2800E-03  1.2800E-03  1.2000E-03  1.1200E-03  1.0400E-03  1.0400E-03
       9.6000E-04  9.6000E-04  8.8000E-04  8.8000E-04  8.0000E-04  8.0000E-04  8.0000E-04  8.0000E-04  8.0000E-04  8.0000E-04
       8.0000E-04  8.0000E-04  8.0000E-04  8.0000E-04  8.0000E-04  8.0000E-04  8.0000E-04  8.0000E-04  8.0000E-04  8.0000E-04
       8.0000E-04  8.0000E-04  8.0000E-04  8.0000E-04  8.0000E-04  8.0000E-04  8.0000E-04  8.0000E-04  8.0000E-04  8.0000E-04
       8.0000E-04  8.0000E-04  8.0000E-04  8.0000E-04  8.0000E-04  8.0000E-04  8.0000E-04  8.0000E-04  8.0000E-04  8.0000E-04
       8.0000E-04  8.0000E-04  8.0000E-04  8.0000E-04  8.0000E-04  8.0000E-04  8.0000E-04  8.0000E-04  8.0000E-04   0.000    
        0.000    
  42    0.000       0.000       0.000      2.2400E-03  2.1600E-03  2.0800E-03  1.9200E-03  1.8400E-03  1.7600E-03  1.6800E-03
       1.6000E-03  1.6000E-03  1.6000E-03  1.6800E-03  1.6800E-03  1.6000E-03  1.6000E-03  1.6000E-03  1.6000E-03  1.5200E-03
       1.5200E-03  1.4400E-03  1.3600E-03  1.3600E-03  1.2800E-03  1.2000E-03  1.2000E-03  1.1200E-03  1.0400E-03  1.0400E-03
       9.6000E-04  9.6000E-04  8.8000E-04  8.8000E-04  8.0000E-04  8.0000E-04  8.0000E-04  8.0000E-04  8.0000E-04  8.8000E-04
       8.8000E-04  8.8000E-04  8.0000E-04  8.0000E-04  8.0000E-04  8.0000E-04  8.0000E-04  8.0000E-04  8.0000E-04  8.0000E-04
       8.0000E-04  8.0000E-04  8.0000E-04  8.0000E-04  8.0000E-04  8.0000E-04  8.0000E-04  8.0000E-04  8.0000E-04  8.0000E-04
       8.0000E-04  8.0000E-04  8.0000E-04  8.0000E-04  8.0000E-04  8.0000E-04  8.0000E-04  8.0000E-04  8.0000E-04  8.0000E-04
       8.0000E-04  8.0000E-04  8.0000E-04  8.0000E-04  8.0000E-04  8.0000E-04  8.0000E-04  8.0000E-04  8.0000E-04   0.000    
        0.000    
  43    0.000       0.000       0.000      2.2400E-03  2.1600E-03  2.0000E-03  1.9200E-03  1.8400E-03  1.7600E-03  1.6800E-03
       1.6800E-03  1.6800E-03  1.6800E-03  1.6800E-03  1.6800E-03  1.6800E-03  1.6800E-03  1.6800E-03  1.5200E-03  1.5200E-03
       1.4400E-03  1.3600E-03  1.3600E-03  1.2800E-03  1.2800E-03  1.2000E-03  1.2000E-03  1.1200E-03  1.1200E-03  1.0400E-03
       1.0400E-03  9.6000E-04  8.8000E-04  8.8000E-04  8.0000E-04  8.0000E-04  8.0000E-04  8.0000E-04  8.0000E-04  8.0000E-04
       8.8000E-04  8.8000E-04  8.0000E-04  8.0000E-04  8.0000E-04  8.0000E-04  8.0000E-04  8.0000E-04  8.0000E-04  8.0000E-04
       8.0000E-04  8.0000E-04  8.0000E-04  8.0000E-04  8.0000E-04  8.0000E-04  8.0000E-04  8.0000E-04  8.0000E-04  8.0000E-04
       8.0000E-04  8.0000E-04  8.0000E-04  8.0000E-04  8.0000E-04  8.0000E-04  8.0000E-04  8.0000E-04  8.0000E-04  8.0000E-04
       8.0000E-04  8.0000E-04  8.0000E-04  8.0000E-04  8.0000E-04  8.0000E-04  8.0000E-04  8.0000E-04  8.0000E-04  8.0000E-04
        0.000    
  44    0.000       0.000      2.3200E-03  2.1600E-03  2.0800E-03  2.0800E-03  1.9200E-03  1.8400E-03  1.7600E-03  1.7600E-03
       1.6800E-03  1.7600E-03  1.7600E-03  1.7600E-03  1.7600E-03  1.7600E-03  1.7600E-03  1.6800E-03  1.6000E-03  1.5200E-03
       1.4400E-03  1.3600E-03  1.3600E-03  1.2800E-03  1.2800E-03  1.2000E-03  1.2000E-03  1.1200E-03  1.1200E-03  1.0400E-03
       1.0400E-03  9.6000E-04  9.6000E-04  8.8000E-04  8.8000E-04  8.8000E-04  8.8000E-04  8.0000E-04  8.0000E-04  8.0000E-04
       8.0000E-04  8.0000E-04  8.0000E-04  8.0000E-04  8.0000E-04  8.0000E-04  8.0000E-04  8.0000E-04  8.0000E-04  8.0000E-04
       8.0000E-04  8.0000E-04  8.0000E-04  8.0000E-04  8.0000E-04  8.0000E-04  8.0000E-04  8.0000E-04  8.0000E-04  8.0000E-04
       8.0000E-04  8.0000E-04  8.0000E-04  8.0000E-04  8.0000E-04  8.0000E-04  8.0000E-04  8.0000E-04  8.0000E-04  8.0000E-04
       8.0000E-04  8.0000E-04  8.0000E-04  8.0000E-04  8.0000E-04  8.0000E-04  8.0000E-04  8.0000E-04  8.0000E-04  8.0000E-04
        0.000    
  45    0.000      2.3200E-03  2.2400E-03  2.0800E-03  2.0800E-03  2.0800E-03  2.0000E-03  1.9200E-03  1.8400E-03  1.7600E-03
       1.7600E-03  1.7600E-03  1.7600E-03  1.8400E-03  1.8400E-03  1.8400E-03  1.8400E-03  1.7600E-03  1.6800E-03  1.6000E-03
       1.5200E-03  1.4400E-03  1.3600E-03  1.3600E-03  1.2800E-03  1.2800E-03  1.2000E-03  1.1200E-03  1.1200E-03  1.0400E-03
       1.0400E-03  9.6000E-04  9.6000E-04  8.8000E-04  8.8000E-04  8.8000E-04  8.8000E-04  8.0000E-04  8.0000E-04  8.0000E-04
       8.0000E-04  8.0000E-04  8.8000E-04  8.0000E-04  8.0000E-04  8.0000E-04  8.0000E-04  8.0000E-04  8.0000E-04  8.0000E-04
       8.0000E-04  8.0000E-04  8.0000E-04  8.0000E-04  8.0000E-04  8.0000E-04  8.0000E-04  8.0000E-04  8.0000E-04  8.0000E-04
       8.0000E-04  8.0000E-04  8.0000E-04  8.0000E-04  8.0000E-04  8.0000E-04  8.0000E-04  8.0000E-04  8.0000E-04  8.0000E-04
       8.0000E-04  8.0000E-04  8.0000E-04  8.0000E-04  8.0000E-04  8.0000E-04  8.0000E-04  8.0000E-04  8.0000E-04  8.0000E-04
        0.000    
  46    0.000      2.3200E-03  2.1600E-03  2.0800E-03  2.0800E-03  2.0800E-03  2.0000E-03  1.9200E-03  1.8400E-03  1.8400E-03
       1.7600E-03  1.8400E-03  1.8400E-03  1.8400E-03  1.8400E-03  1.8400E-03  1.8400E-03  1.8400E-03  1.7600E-03  1.6800E-03
       1.5200E-03  1.4400E-03  1.4400E-03  1.3600E-03  1.3600E-03  1.2800E-03  1.2000E-03  1.1200E-03  1.1200E-03  1.0400E-03
       1.0400E-03  9.6000E-04  9.6000E-04  8.8000E-04  8.8000E-04  8.8000E-04  8.8000E-04  8.0000E-04  8.0000E-04  8.0000E-04
       8.0000E-04  8.8000E-04  8.8000E-04  8.8000E-04  8.0000E-04  8.0000E-04  8.0000E-04  8.0000E-04  8.0000E-04  8.0000E-04
       8.8000E-04  8.8000E-04  8.8000E-04  8.8000E-04  8.0000E-04  8.0000E-04  8.0000E-04  8.0000E-04  8.0000E-04  8.0000E-04
       8.0000E-04  8.0000E-04  8.0000E-04  8.0000E-04  8.0000E-04  8.0000E-04  8.0000E-04  8.0000E-04  8.0000E-04  8.0000E-04
       8.0000E-04  8.0000E-04  8.0000E-04  8.0000E-04  8.0000E-04  8.0000E-04  8.0000E-04  8.0000E-04   0.000       0.000    
        0.000    
  47   2.4000E-03  2.3200E-03  2.1600E-03  2.0800E-03  2.0000E-03  2.0000E-03  2.0000E-03  2.0000E-03  1.9200E-03  1.8400E-03
       1.8400E-03  1.9200E-03  1.9200E-03  1.9200E-03  1.9200E-03  1.9200E-03  1.9200E-03  1.8400E-03  1.7600E-03  1.6800E-03
       1.6000E-03  1.5200E-03  1.4400E-03  1.3600E-03  1.3600E-03  1.2800E-03  1.2000E-03  1.2000E-03  1.1200E-03  1.0400E-03
       1.0400E-03  9.6000E-04  9.6000E-04  8.8000E-04  8.8000E-04  8.8000E-04  8.8000E-04  8.0000E-04  8.0000E-04  8.0000E-04
       8.0000E-04  8.8000E-04  8.8000E-04  8.8000E-04  8.8000E-04  8.0000E-04  8.0000E-04  8.0000E-04  8.0000E-04  8.8000E-04
       8.8000E-04  9.6000E-04  9.6000E-04  8.8000E-04  8.8000E-04  8.0000E-04  8.0000E-04  8.0000E-04  8.0000E-04  8.0000E-04
       8.0000E-04  8.0000E-04  8.0000E-04  8.0000E-04  8.0000E-04  8.0000E-04  8.0000E-04  8.0000E-04  8.0000E-04  8.0000E-04
       8.0000E-04  8.0000E-04  8.0000E-04  8.0000E-04  8.0000E-04  8.0000E-04  8.0000E-04  8.0000E-04   0.000       0.000    
        0.000    
  48    0.000      2.3200E-03  2.2400E-03  2.0800E-03  2.0800E-03  2.0000E-03  2.0800E-03  2.0800E-03  1.9200E-03  1.9200E-03
       1.9200E-03  1.9200E-03  1.9200E-03  1.9200E-03  1.9200E-03  1.9200E-03  1.9200E-03  1.9200E-03  1.8400E-03  1.7600E-03
       1.6000E-03  1.5200E-03  1.4400E-03  1.4400E-03  1.3600E-03  1.3600E-03  1.2800E-03  1.2000E-03  1.1200E-03  1.0400E-03
       1.0400E-03  9.6000E-04  9.6000E-04  8.8000E-04  8.8000E-04  8.8000E-04  8.0000E-04  8.0000E-04  8.0000E-04  8.0000E-04
       8.0000E-04  8.8000E-04  8.8000E-04  8.8000E-04  8.8000E-04  8.8000E-04  8.0000E-04  8.0000E-04  8.0000E-04  8.8000E-04
       9.6000E-04  9.6000E-04  9.6000E-04  9.6000E-04  8.8000E-04  8.0000E-04  8.0000E-04  8.0000E-04  8.0000E-04  8.0000E-04
       8.0000E-04  8.0000E-04  8.0000E-04  8.0000E-04  8.0000E-04  8.0000E-04  8.0000E-04  8.0000E-04  8.0000E-04  8.0000E-04
       8.0000E-04  8.0000E-04  8.0000E-04  8.0000E-04  8.0000E-04  8.0000E-04  8.0000E-04   0.000       0.000       0.000    
        0.000    
  49    0.000       0.000      2.3200E-03  2.2400E-03  2.1600E-03  2.0800E-03  2.1600E-03  2.1600E-03  2.0800E-03  2.0000E-03
       2.0000E-03  2.0000E-03  2.0000E-03  2.0000E-03  2.0000E-03  2.0000E-03  2.0000E-03  1.9200E-03  1.8400E-03  1.7600E-03
       1.6800E-03  1.6000E-03  1.5200E-03  1.4400E-03  1.3600E-03  1.3600E-03  1.2800E-03  1.2000E-03  1.1200E-03  1.0400E-03
       1.0400E-03  9.6000E-04  9.6000E-04  8.8000E-04  8.8000E-04  8.8000E-04  8.0000E-04  8.0000E-04  8.0000E-04  8.0000E-04
       8.0000E-04  8.8000E-04  8.8000E-04  9.6000E-04  9.6000E-04  8.8000E-04  8.0000E-04  8.0000E-04  8.0000E-04  8.0000E-04
       9.6000E-04  1.0400E-03  1.0400E-03  9.6000E-04  9.6000E-04  8.8000E-04  8.0000E-04  8.0000E-04  8.0000E-04  8.0000E-04
       8.0000E-04  8.0000E-04  8.0000E-04  8.0000E-04  8.0000E-04  8.0000E-04  8.0000E-04  8.0000E-04  8.0000E-04  8.0000E-04
       8.0000E-04  8.0000E-04  8.0000E-04  8.0000E-04  8.0000E-04  8.0000E-04   0.000       0.000       0.000       0.000    
        0.000    
  50    0.000       0.000       0.000      2.3200E-03  2.2400E-03  2.2400E-03  2.2400E-03  2.2400E-03  2.1600E-03  2.1600E-03
       2.0800E-03  2.0800E-03  2.0800E-03  2.0000E-03  2.0000E-03  2.0000E-03  2.0000E-03  1.9200E-03  1.9200E-03  1.7600E-03
       1.6800E-03  1.6000E-03  1.5200E-03  1.4400E-03  1.4400E-03  1.3600E-03  1.2800E-03  1.2000E-03  1.1200E-03  1.0400E-03
       1.0400E-03  9.6000E-04  9.6000E-04  8.8000E-04  8.8000E-04  8.8000E-04  8.0000E-04  8.0000E-04  8.0000E-04  8.0000E-04
       8.8000E-04  8.8000E-04  9.6000E-04  9.6000E-04  9.6000E-04  9.6000E-04  8.8000E-04  8.0000E-04  8.0000E-04  8.0000E-04
       9.6000E-04  1.0400E-03  1.0400E-03  1.0400E-03  9.6000E-04  8.8000E-04  8.0000E-04  8.0000E-04  8.0000E-04  8.0000E-04
       8.0000E-04  8.0000E-04  8.0000E-04  8.0000E-04  8.0000E-04  8.0000E-04  8.0000E-04  8.0000E-04  8.0000E-04  8.0000E-04
       8.0000E-04  8.0000E-04  8.0000E-04  8.0000E-04  8.0000E-04  8.0000E-04   0.000       0.000       0.000       0.000    
        0.000    
  51    0.000       0.000       0.000       0.000       0.000       0.000       0.000       0.000      2.2400E-03  2.2400E-03
       2.1600E-03  2.0800E-03  2.0800E-03   0.000       0.000      2.0800E-03  2.0800E-03  2.0000E-03  1.9200E-03  1.8400E-03
       1.7600E-03  1.6800E-03  1.6000E-03  1.5200E-03  1.4400E-03  1.3600E-03  1.2800E-03  1.2000E-03  1.1200E-03  1.0400E-03
       1.0400E-03  9.6000E-04  9.6000E-04  8.8000E-04  8.8000E-04  8.8000E-04  8.0000E-04  8.0000E-04  8.8000E-04  8.8000E-04
       8.8000E-04  9.6000E-04  9.6000E-04  1.0400E-03  1.0400E-03  9.6000E-04  8.8000E-04  8.0000E-04  8.0000E-04  8.0000E-04
       8.8000E-04  1.0400E-03  1.0400E-03  1.0400E-03  9.6000E-04  8.8000E-04  8.0000E-04  8.0000E-04  8.0000E-04  8.0000E-04
       8.0000E-04  8.0000E-04  8.0000E-04  8.0000E-04  8.0000E-04  8.0000E-04  8.0000E-04  8.0000E-04  8.0000E-04  8.0000E-04
       8.0000E-04  8.0000E-04  8.0000E-04  8.0000E-04  8.0000E-04  8.0000E-04   0.000       0.000       0.000       0.000    
        0.000    
  52    0.000       0.000       0.000       0.000       0.000       0.000       0.000       0.000       0.000       0.000    
        0.000       0.000       0.000       0.000       0.000       0.000      2.0800E-03  2.0000E-03  1.9200E-03  1.8400E-03
       1.7600E-03  1.6800E-03  1.6000E-03  1.5200E-03  1.4400E-03  1.3600E-03  1.2800E-03  1.2000E-03  1.1200E-03  1.0400E-03
       1.0400E-03  9.6000E-04  8.8000E-04  8.8000E-04  8.8000E-04  8.8000E-04  8.8000E-04  8.8000E-04  8.8000E-04  8.8000E-04
       9.6000E-04  9.6000E-04  1.0400E-03  1.0400E-03  1.1200E-03  1.0400E-03  9.6000E-04  8.8000E-04  8.8000E-04  8.8000E-04
       9.6000E-04  1.0400E-03  1.1200E-03  1.1200E-03  1.0400E-03  8.8000E-04  8.0000E-04  8.0000E-04  8.0000E-04  8.0000E-04
       8.0000E-04  8.0000E-04  8.0000E-04  8.0000E-04  8.0000E-04  8.0000E-04  8.0000E-04  8.0000E-04  8.0000E-04  8.0000E-04
       8.0000E-04  8.0000E-04  8.0000E-04  8.0000E-04  8.0000E-04  8.0000E-04   0.000       0.000       0.000       0.000    
        0.000    
  53    0.000       0.000       0.000       0.000       0.000       0.000       0.000       0.000       0.000       0.000    
        0.000       0.000       0.000       0.000       0.000       0.000       0.000      2.0000E-03  1.9200E-03  1.8400E-03
       1.7600E-03  1.6800E-03  1.6000E-03  1.5200E-03  1.4400E-03  1.3600E-03  1.2800E-03  1.2000E-03  1.1200E-03  1.0400E-03
       1.0400E-03  9.6000E-04  9.6000E-04  8.8000E-04  8.8000E-04  8.8000E-04  8.8000E-04  8.8000E-04  8.8000E-04  9.6000E-04
       9.6000E-04  1.0400E-03  1.1200E-03  1.1200E-03  1.1200E-03  1.1200E-03  9.6000E-04  8.8000E-04  8.8000E-04  8.8000E-04
       9.6000E-04  1.0400E-03  1.1200E-03  1.1200E-03  1.0400E-03  8.8000E-04  8.0000E-04  8.0000E-04  8.0000E-04  8.0000E-04
       8.0000E-04  8.0000E-04  8.0000E-04  8.0000E-04  8.0000E-04  8.0000E-04  8.0000E-04  8.0000E-04  8.0000E-04  8.0000E-04
       8.0000E-04  8.0000E-04  8.0000E-04  8.0000E-04  8.0000E-04  8.0000E-04   0.000       0.000       0.000       0.000    
        0.000    
  54    0.000       0.000       0.000       0.000       0.000       0.000       0.000       0.000       0.000       0.000    
        0.000       0.000       0.000       0.000       0.000       0.000       0.000       0.000      1.9200E-03  1.8400E-03
       1.7600E-03  1.6800E-03  1.6000E-03  1.6000E-03  1.4400E-03  1.3600E-03  1.2800E-03  1.2000E-03  1.1200E-03  1.0400E-03
       1.0400E-03  9.6000E-04  9.6000E-04  8.8000E-04  8.8000E-04  8.8000E-04  8.8000E-04  8.8000E-04  8.8000E-04  9.6000E-04
       1.0400E-03  1.0400E-03  1.1200E-03  1.2000E-03  1.2000E-03  1.1200E-03  1.0400E-03  9.6000E-04  9.6000E-04  8.8000E-04
       9.6000E-04  1.0400E-03  1.1200E-03  1.1200E-03  1.0400E-03  8.8000E-04  8.8000E-04  8.0000E-04  8.0000E-04  8.0000E-04
       8.0000E-04  8.0000E-04  8.0000E-04  8.0000E-04  8.0000E-04  8.0000E-04  8.0000E-04  8.0000E-04  8.0000E-04  8.0000E-04
       8.0000E-04  8.0000E-04  8.0000E-04  8.0000E-04  8.0000E-04  8.0000E-04   0.000       0.000       0.000       0.000    
        0.000    
  55    0.000       0.000       0.000       0.000       0.000       0.000       0.000       0.000       0.000       0.000    
        0.000       0.000       0.000       0.000       0.000       0.000       0.000       0.000      1.9200E-03  1.7600E-03
       1.6800E-03  1.6000E-03  1.6000E-03  1.5200E-03  1.4400E-03  1.3600E-03  1.2800E-03  1.2000E-03  1.1200E-03  1.0400E-03
       1.0400E-03  9.6000E-04  9.6000E-04  8.8000E-04  8.8000E-04  8.8000E-04  8.8000E-04  8.8000E-04  8.8000E-04  9.6000E-04
       1.0400E-03  1.0400E-03  1.1200E-03  1.2000E-03  1.2000E-03  1.1200E-03  1.0400E-03  9.6000E-04  9.6000E-04  9.6000E-04
       9.6000E-04  1.0400E-03  1.1200E-03  1.1200E-03  1.0400E-03  9.6000E-04  8.8000E-04  8.0000E-04  8.0000E-04  8.0000E-04
       8.0000E-04  8.0000E-04  8.0000E-04  8.0000E-04  8.0000E-04  8.0000E-04  8.0000E-04  8.0000E-04  8.0000E-04  8.0000E-04
       8.0000E-04  8.0000E-04  8.0000E-04  8.0000E-04  8.0000E-04  8.0000E-04   0.000       0.000       0.000       0.000    
        0.000    
  56    0.000       0.000       0.000       0.000       0.000       0.000       0.000       0.000       0.000       0.000    
        0.000       0.000       0.000       0.000       0.000       0.000       0.000       0.000       0.000       0.000    
        0.000      1.6000E-03  1.6000E-03  1.5200E-03  1.4400E-03  1.3600E-03  1.2800E-03  1.2000E-03  1.1200E-03  1.1200E-03
       1.0400E-03  9.6000E-04  9.6000E-04  8.8000E-04  8.8000E-04  8.8000E-04  8.8000E-04  8.8000E-04  8.8000E-04  9.6000E-04
       1.0400E-03  1.0400E-03  1.1200E-03  1.2000E-03  1.2000E-03  1.2000E-03  1.1200E-03  1.0400E-03  9.6000E-04  9.6000E-04
       9.6000E-04  1.0400E-03  1.1200E-03  1.1200E-03  1.0400E-03  9.6000E-04  8.8000E-04  8.0000E-04  8.0000E-04  8.0000E-04
       8.0000E-04  8.0000E-04  8.0000E-04  8.0000E-04  8.0000E-04  8.0000E-04  8.0000E-04  8.0000E-04  8.0000E-04  8.0000E-04
       8.0000E-04  8.0000E-04  8.0000E-04  8.0000E-04  8.0000E-04  8.0000E-04   0.000       0.000       0.000       0.000    
        0.000    
  57    0.000       0.000       0.000       0.000       0.000       0.000       0.000       0.000       0.000       0.000    
        0.000       0.000       0.000       0.000       0.000       0.000       0.000       0.000       0.000       0.000    
        0.000       0.000      1.6000E-03  1.5200E-03  1.4400E-03  1.3600E-03  1.2800E-03  1.2000E-03  1.1200E-03  1.0400E-03
       1.0400E-03  9.6000E-04  9.6000E-04  8.8000E-04  8.8000E-04  8.8000E-04  8.8000E-04  8.8000E-04  9.6000E-04  9.6000E-04
       1.0400E-03  1.1200E-03  1.1200E-03  1.2000E-03  1.2800E-03  1.2800E-03  1.2000E-03  1.1200E-03  1.0400E-03  1.0400E-03
       1.0400E-03  1.0400E-03  1.1200E-03  1.1200E-03  1.0400E-03  9.6000E-04  9.6000E-04  8.8000E-04  8.0000E-04  8.0000E-04
       8.0000E-04  8.0000E-04  8.0000E-04  8.0000E-04  8.0000E-04  8.0000E-04  8.0000E-04  8.0000E-04  8.0000E-04  8.0000E-04
       8.0000E-04  8.0000E-04  8.0000E-04  8.0000E-04  8.0000E-04  8.0000E-04   0.000       0.000       0.000       0.000    
        0.000    
  58    0.000       0.000       0.000       0.000       0.000       0.000       0.000       0.000       0.000       0.000    
        0.000       0.000       0.000       0.000       0.000       0.000       0.000       0.000       0.000       0.000    
        0.000       0.000       0.000      1.5200E-03  1.4400E-03  1.3600E-03  1.2800E-03  1.2000E-03  1.1200E-03  1.1200E-03
       1.0400E-03  9.6000E-04  9.6000E-04  8.8000E-04  8.8000E-04  8.8000E-04  8.8000E-04  8.8000E-04  9.6000E-04  9.6000E-04
       1.0400E-03  1.1200E-03  1.2000E-03  1.2000E-03  1.2800E-03  1.2800E-03  1.2000E-03  1.1200E-03  1.1200E-03  1.0400E-03
       1.0400E-03  1.1200E-03  1.2000E-03  1.2000E-03  1.0400E-03  1.0400E-03  9.6000E-04  8.8000E-04  8.0000E-04  8.0000E-04
       8.0000E-04  8.0000E-04  8.0000E-04  8.0000E-04  8.0000E-04  8.0000E-04  8.0000E-04  8.0000E-04  8.0000E-04  8.0000E-04
       8.0000E-04  8.0000E-04  8.0000E-04  8.0000E-04  8.0000E-04  8.0000E-04   0.000       0.000       0.000       0.000    
        0.000    
  59    0.000       0.000       0.000       0.000       0.000       0.000       0.000       0.000       0.000       0.000    
        0.000       0.000       0.000       0.000       0.000       0.000       0.000       0.000       0.000       0.000    
        0.000       0.000       0.000       0.000       0.000       0.000       0.000       0.000       0.000      1.0400E-03
       1.0400E-03  9.6000E-04  9.6000E-04  8.8000E-04  8.8000E-04  8.8000E-04  8.8000E-04  8.8000E-04  9.6000E-04  9.6000E-04
       1.0400E-03  1.1200E-03  1.2000E-03  1.2800E-03  1.3600E-03  1.3600E-03  1.2800E-03  1.2000E-03  1.1200E-03  1.1200E-03
       1.1200E-03  1.1200E-03  1.2000E-03  1.2000E-03  1.1200E-03  1.0400E-03  9.6000E-04  9.6000E-04  8.8000E-04  8.8000E-04
       8.8000E-04  8.0000E-04  8.0000E-04  8.0000E-04  8.0000E-04  8.0000E-04  8.0000E-04  8.0000E-04  8.0000E-04  8.0000E-04
       8.0000E-04  8.0000E-04  8.0000E-04  8.0000E-04  8.0000E-04  8.0000E-04   0.000       0.000       0.000       0.000    
        0.000    
  60    0.000       0.000       0.000       0.000       0.000       0.000       0.000       0.000       0.000       0.000    
        0.000       0.000       0.000       0.000       0.000       0.000       0.000       0.000       0.000       0.000    
        0.000       0.000       0.000       0.000       0.000       0.000       0.000       0.000       0.000       0.000    
        0.000      9.6000E-04  9.6000E-04  8.8000E-04  8.8000E-04  8.8000E-04  8.8000E-04  9.6000E-04  9.6000E-04  9.6000E-04
       1.0400E-03  1.1200E-03  1.2000E-03  1.2800E-03  1.3600E-03  1.3600E-03  1.2800E-03  1.2000E-03  1.1200E-03  1.1200E-03
       1.1200E-03  1.1200E-03  1.2000E-03  1.2000E-03  1.1200E-03  1.1200E-03  1.0400E-03  9.6000E-04  9.6000E-04  8.8000E-04
       8.8000E-04  8.8000E-04  8.0000E-04  8.0000E-04  8.0000E-04  8.0000E-04  8.0000E-04  8.0000E-04  8.0000E-04  8.0000E-04
       8.0000E-04  8.0000E-04  8.0000E-04  8.0000E-04  8.0000E-04  8.0000E-04   0.000       0.000       0.000       0.000    
        0.000    
  61    0.000       0.000       0.000       0.000       0.000       0.000       0.000       0.000       0.000       0.000    
        0.000       0.000       0.000       0.000       0.000       0.000       0.000       0.000       0.000       0.000    
        0.000       0.000       0.000       0.000       0.000       0.000       0.000       0.000       0.000       0.000    
        0.000       0.000      9.6000E-04  9.6000E-04  8.8000E-04  8.8000E-04  8.8000E-04  9.6000E-04  9.6000E-04  9.6000E-04
       1.0400E-03  1.1200E-03  1.2000E-03  1.2800E-03  1.3600E-03  1.3600E-03  1.3600E-03  1.2800E-03  1.2000E-03  1.2000E-03
       1.1200E-03  1.2000E-03  1.2000E-03  1.2000E-03  1.2000E-03  1.1200E-03  1.0400E-03  1.0400E-03  9.6000E-04  9.6000E-04
       9.6000E-04  8.8000E-04  8.0000E-04  8.0000E-04  8.0000E-04  8.0000E-04  8.0000E-04  8.0000E-04  8.0000E-04  8.0000E-04
       8.0000E-04  8.0000E-04  8.0000E-04  8.0000E-04  8.0000E-04  8.0000E-04   0.000       0.000       0.000       0.000    
        0.000    
  62    0.000       0.000       0.000       0.000       0.000       0.000       0.000       0.000       0.000       0.000    
        0.000       0.000       0.000       0.000       0.000       0.000       0.000       0.000       0.000       0.000    
        0.000       0.000       0.000       0.000       0.000       0.000       0.000       0.000       0.000       0.000    
        0.000       0.000       0.000      9.6000E-04  9.6000E-04   0.000       0.000       0.000       0.000       0.000    
        0.000       0.000       0.000       0.000       0.000       0.000      1.3600E-03  1.2800E-03  1.2000E-03  1.2000E-03
       1.2000E-03  1.2000E-03  1.2000E-03  1.2800E-03  1.2000E-03  1.2000E-03  1.1200E-03  1.0400E-03  1.0400E-03  1.0400E-03
       1.0400E-03  9.6000E-04  8.8000E-04  8.0000E-04  8.0000E-04  8.0000E-04  8.0000E-04  8.0000E-04  8.0000E-04  8.0000E-04
       8.0000E-04  8.0000E-04  8.0000E-04  8.0000E-04  8.0000E-04  8.0000E-04   0.000       0.000       0.000       0.000    
        0.000    
  63    0.000       0.000       0.000       0.000       0.000       0.000       0.000       0.000       0.000       0.000    
        0.000       0.000       0.000       0.000       0.000       0.000       0.000       0.000       0.000       0.000    
        0.000       0.000       0.000       0.000       0.000       0.000       0.000       0.000       0.000       0.000    
        0.000       0.000       0.000       0.000       0.000       0.000       0.000       0.000       0.000       0.000    
        0.000       0.000       0.000       0.000       0.000       0.000      1.4400E-03  1.3600E-03  1.2800E-03  1.2800E-03
       1.2000E-03  1.2000E-03  1.2800E-03  1.2800E-03  1.2800E-03  1.2000E-03  1.2000E-03  1.1200E-03  1.1200E-03  1.1200E-03
       1.0400E-03  9.6000E-04  8.8000E-04  8.8000E-04  8.0000E-04  8.0000E-04  8.0000E-04  8.0000E-04  8.0000E-04  8.0000E-04
       8.0000E-04  8.0000E-04  8.0000E-04  8.0000E-04  8.0000E-04  8.0000E-04   0.000       0.000       0.000       0.000    
        0.000    
  64    0.000       0.000       0.000       0.000       0.000       0.000       0.000       0.000       0.000       0.000    
        0.000       0.000       0.000       0.000       0.000       0.000       0.000       0.000       0.000       0.000    
        0.000       0.000       0.000       0.000       0.000       0.000       0.000       0.000       0.000       0.000    
        0.000       0.000       0.000       0.000       0.000       0.000       0.000       0.000       0.000       0.000    
        0.000       0.000       0.000       0.000       0.000       0.000       0.000      1.4400E-03  1.3600E-03  1.3600E-03
       1.2800E-03  1.2800E-03  1.2800E-03  1.2800E-03  1.3600E-03  1.2800E-03  1.2800E-03  1.2000E-03  1.2000E-03  1.1200E-03
       1.1200E-03  1.0400E-03  9.6000E-04  8.8000E-04  8.8000E-04  8.0000E-04  8.0000E-04  8.0000E-04  8.0000E-04  8.0000E-04
       8.0000E-04  8.0000E-04  8.0000E-04  8.0000E-04  8.0000E-04  8.0000E-04   0.000       0.000       0.000       0.000    
        0.000    
  65    0.000       0.000       0.000       0.000       0.000       0.000       0.000       0.000       0.000       0.000    
        0.000       0.000       0.000       0.000       0.000       0.000       0.000       0.000       0.000       0.000    
        0.000       0.000       0.000       0.000       0.000       0.000       0.000       0.000       0.000       0.000    
        0.000       0.000       0.000       0.000       0.000       0.000       0.000       0.000       0.000       0.000    
        0.000       0.000       0.000       0.000       0.000       0.000       0.000       0.000      1.4400E-03  1.3600E-03
       1.3600E-03  1.2800E-03  1.2800E-03  1.2800E-03  1.3600E-03  1.3600E-03  1.2800E-03  1.2800E-03  1.2000E-03  1.2000E-03
       1.1200E-03  1.0400E-03  9.6000E-04  9.6000E-04  8.8000E-04  8.0000E-04  8.0000E-04  8.0000E-04  8.0000E-04  8.0000E-04
       8.0000E-04  8.0000E-04  8.0000E-04  8.0000E-04  8.0000E-04  8.0000E-04   0.000       0.000       0.000       0.000    
        0.000    
  66    0.000       0.000       0.000       0.000       0.000       0.000       0.000       0.000       0.000       0.000    
        0.000       0.000       0.000       0.000       0.000       0.000       0.000       0.000       0.000       0.000    
        0.000       0.000       0.000       0.000       0.000       0.000       0.000       0.000       0.000       0.000    
        0.000       0.000       0.000       0.000       0.000       0.000       0.000       0.000       0.000       0.000    
        0.000       0.000       0.000       0.000       0.000       0.000       0.000       0.000       0.000      1.4400E-03
       1.3600E-03  1.2800E-03  1.2800E-03  1.3600E-03  1.3600E-03  1.3600E-03  1.3600E-03  1.3600E-03  1.2800E-03  1.2000E-03
       1.2000E-03  1.1200E-03  1.0400E-03  9.6000E-04  8.8000E-04  8.0000E-04  8.0000E-04  8.0000E-04  8.0000E-04  8.0000E-04
       8.0000E-04  8.0000E-04  8.0000E-04  8.0000E-04  8.0000E-04  8.0000E-04   0.000       0.000       0.000       0.000    
        0.000    
  67    0.000       0.000       0.000       0.000       0.000       0.000       0.000       0.000       0.000       0.000    
        0.000       0.000       0.000       0.000       0.000       0.000       0.000       0.000       0.000       0.000    
        0.000       0.000       0.000       0.000       0.000       0.000       0.000       0.000       0.000       0.000    
        0.000       0.000       0.000       0.000       0.000       0.000       0.000       0.000       0.000       0.000    
        0.000       0.000       0.000       0.000       0.000       0.000       0.000       0.000       0.000      1.4400E-03
       1.3600E-03  1.3600E-03  1.2800E-03  1.3600E-03  1.4400E-03  1.4400E-03  1.4400E-03  1.3600E-03  1.2800E-03  1.2800E-03
       1.2000E-03  1.1200E-03  1.0400E-03  9.6000E-04  8.8000E-04  8.0000E-04  8.0000E-04  8.0000E-04  8.0000E-04  8.0000E-04
       8.0000E-04  8.0000E-04  8.0000E-04  8.0000E-04  8.0000E-04  8.0000E-04   0.000       0.000       0.000       0.000    
        0.000    
  68    0.000       0.000       0.000       0.000       0.000       0.000       0.000       0.000       0.000       0.000    
        0.000       0.000       0.000       0.000       0.000       0.000       0.000       0.000       0.000       0.000    
        0.000       0.000       0.000       0.000       0.000       0.000       0.000       0.000       0.000       0.000    
        0.000       0.000       0.000       0.000       0.000       0.000       0.000       0.000       0.000       0.000    
        0.000       0.000       0.000       0.000       0.000       0.000       0.000       0.000       0.000       0.000    
       1.3600E-03  1.3600E-03  1.3600E-03  1.3600E-03  1.3600E-03  1.4400E-03  1.4400E-03  1.3600E-03  1.3600E-03  1.2800E-03
       1.2000E-03  1.1200E-03  1.0400E-03  9.6000E-04  8.8000E-04  8.0000E-04  8.0000E-04  8.0000E-04  8.0000E-04  8.0000E-04
       8.0000E-04  8.0000E-04  8.0000E-04  8.0000E-04  8.0000E-04  8.0000E-04   0.000       0.000       0.000       0.000    
        0.000    
  69    0.000       0.000       0.000       0.000       0.000       0.000       0.000       0.000       0.000       0.000    
        0.000       0.000       0.000       0.000       0.000       0.000       0.000       0.000       0.000       0.000    
        0.000       0.000       0.000       0.000       0.000       0.000       0.000       0.000       0.000       0.000    
        0.000       0.000       0.000       0.000       0.000       0.000       0.000       0.000       0.000       0.000    
        0.000       0.000       0.000       0.000       0.000       0.000       0.000       0.000       0.000       0.000    
        0.000       0.000       0.000       0.000       0.000       0.000      1.4400E-03  1.3600E-03  1.3600E-03  1.2800E-03
       1.2000E-03  1.1200E-03  1.0400E-03  9.6000E-04  8.8000E-04  8.8000E-04  8.8000E-04  8.0000E-04  8.0000E-04  8.0000E-04
       8.0000E-04  8.0000E-04  8.0000E-04  8.0000E-04  8.8000E-04  8.8000E-04   0.000       0.000       0.000       0.000    
        0.000    
  70    0.000       0.000       0.000       0.000       0.000       0.000       0.000       0.000       0.000       0.000    
        0.000       0.000       0.000       0.000       0.000       0.000       0.000       0.000       0.000       0.000    
        0.000       0.000       0.000       0.000       0.000       0.000       0.000       0.000       0.000       0.000    
        0.000       0.000       0.000       0.000       0.000       0.000       0.000       0.000       0.000       0.000    
        0.000       0.000       0.000       0.000       0.000       0.000       0.000       0.000       0.000       0.000    
        0.000       0.000       0.000       0.000       0.000       0.000      1.4400E-03  1.4400E-03  1.3600E-03  1.2800E-03
       1.2000E-03  1.1200E-03  1.0400E-03  9.6000E-04  8.8000E-04  8.8000E-04  8.8000E-04  8.0000E-04  8.0000E-04  8.0000E-04
       8.0000E-04  8.0000E-04  8.0000E-04  8.8000E-04  8.8000E-04   0.000       0.000       0.000       0.000       0.000    
        0.000    
  71    0.000       0.000       0.000       0.000       0.000       0.000       0.000       0.000       0.000       0.000    
        0.000       0.000       0.000       0.000       0.000       0.000       0.000       0.000       0.000       0.000    
        0.000       0.000       0.000       0.000       0.000       0.000       0.000       0.000       0.000       0.000    
        0.000       0.000       0.000       0.000       0.000       0.000       0.000       0.000       0.000       0.000    
        0.000       0.000       0.000       0.000       0.000       0.000       0.000       0.000       0.000       0.000    
        0.000       0.000       0.000       0.000       0.000       0.000       0.000      1.4400E-03  1.3600E-03  1.2800E-03
       1.2000E-03  1.1200E-03  1.0400E-03  9.6000E-04   0.000       0.000       0.000       0.000       0.000       0.000    
        0.000       0.000       0.000       0.000      8.8000E-04   0.000       0.000       0.000       0.000       0.000    
        0.000    
  72    0.000       0.000       0.000       0.000       0.000       0.000       0.000       0.000       0.000       0.000    
        0.000       0.000       0.000       0.000       0.000       0.000       0.000       0.000       0.000       0.000    
        0.000       0.000       0.000       0.000       0.000       0.000       0.000       0.000       0.000       0.000    
        0.000       0.000       0.000       0.000       0.000       0.000       0.000       0.000       0.000       0.000    
        0.000       0.000       0.000       0.000       0.000       0.000       0.000       0.000       0.000       0.000    
        0.000       0.000       0.000       0.000       0.000       0.000       0.000       0.000      1.3600E-03  1.2800E-03
       1.2000E-03  1.1200E-03   0.000       0.000       0.000       0.000       0.000       0.000       0.000       0.000    
        0.000       0.000       0.000       0.000       0.000       0.000       0.000       0.000       0.000       0.000    
        0.000    
  73    0.000       0.000       0.000       0.000       0.000       0.000       0.000       0.000       0.000       0.000    
        0.000       0.000       0.000       0.000       0.000       0.000       0.000       0.000       0.000       0.000    
        0.000       0.000       0.000       0.000       0.000       0.000       0.000       0.000       0.000       0.000    
        0.000       0.000       0.000       0.000       0.000       0.000       0.000       0.000       0.000       0.000    
        0.000       0.000       0.000       0.000       0.000       0.000       0.000       0.000       0.000       0.000    
        0.000       0.000       0.000       0.000       0.000       0.000       0.000       0.000      1.4400E-03  1.3600E-03
       1.2800E-03   0.000       0.000       0.000       0.000       0.000       0.000       0.000       0.000       0.000    
        0.000       0.000       0.000       0.000       0.000       0.000       0.000       0.000       0.000       0.000    
        0.000    
 
 SOLVING FOR HEAD 

 OUTPUT CONTROL FOR STRESS PERIOD    1   TIME STEP    1
    PRINT BUDGET
    PRINT HEAD FOR ALL LAYERS
    SAVE HEAD FOR ALL LAYERS



 STREAM LISTING     PERIOD      1   STEP        1

 LAYER ROW COL. STREAM  RCH.   FLOW INTO    STREAM     FLOW OUT OF   OVRLND.    DIRECT     STREAM      STREAM      STREAM     STREAM  STREAMBED   FLOW TO   CHNG. UNSAT. 
                SEG.NO.  NO.   STRM. RCH.    LOSS       STRM. RCH.   RUNOFF     PRECIP       ET         HEAD        DEPTH      WIDTH  CONDCTNC.   WAT. TAB.

   1   39   15     1     1    0.0000E+00 -3.7950E+03   3.7950E+03  0.000E+00  0.000E+00  0.000E+00  2.35652E+03  1.963E-02  3.000E+00  1.530E+03  0.000E+00  0.000E+00
   1   39   16     1     2    3.7950E+03  3.5470E+02   3.4403E+03  0.000E+00  0.000E+00  0.000E+00  2.35253E+03  2.548E-02  3.000E+00  6.750E+02  0.000E+00  0.000E+00
   1   39   17     1     3    3.4403E+03 -2.1452E+02   3.6548E+03  0.000E+00  0.000E+00  0.000E+00  2.34552E+03  2.330E-02  3.000E+00  4.500E+02  0.000E+00  0.000E+00
   1   38   17     1     4    3.6548E+03 -6.6367E+02   4.3185E+03  0.000E+00  0.000E+00  0.000E+00  2.34253E+03  2.517E-02  3.000E+00  4.500E+02  0.000E+00  0.000E+00
   1   38   18     1     5    4.3185E+03 -3.6007E+02   4.6785E+03  0.000E+00  0.000E+00  0.000E+00  2.33653E+03  2.932E-02  3.000E+00  7.650E+02  0.000E+00  0.000E+00
   1   38   19     1     6    4.6785E+03  3.5702E+02   4.3215E+03  0.000E+00  0.000E+00  0.000E+00  2.33253E+03  2.891E-02  3.000E+00  6.750E+02  0.000E+00  0.000E+00
   1   38   20     1     7    4.3215E+03 -1.9857E+03   6.3073E+03  0.000E+00  0.000E+00  0.000E+00  2.32453E+03  2.907E-02  3.000E+00  1.350E+03  0.000E+00  0.000E+00
   1   38   21     1     8    6.3073E+03 -1.9787E+03   8.2860E+03  0.000E+00  0.000E+00  0.000E+00  2.31653E+03  3.427E-02  3.000E+00  1.350E+03  0.000E+00  0.000E+00
   1   38   22     1     9    8.2860E+03 -2.2404E+03   1.0526E+04  0.000E+00  0.000E+00  0.000E+00  2.30654E+03  3.567E-02  3.000E+00  1.530E+03  0.000E+00  0.000E+00
   1   38   23     1    10    1.0526E+04 -8.3493E+03   1.8876E+04  0.000E+00  0.000E+00  0.000E+00  2.28854E+03  4.292E-02  3.000E+00  1.530E+03  0.000E+00  0.000E+00
   1   37   24     1    11    1.8876E+04 -3.4588E+02   1.9222E+04  0.000E+00  0.000E+00  0.000E+00  2.26855E+03  4.787E-02  3.000E+00  7.650E+02  0.000E+00  0.000E+00
   1   37   25     1    12    1.9222E+04 -6.9614E+03   2.6183E+04  0.000E+00  0.000E+00  0.000E+00  2.24755E+03  5.426E-02  3.000E+00  1.080E+03  0.000E+00  0.000E+00
   1   36   25     1    13    2.6183E+04 -3.3475E+03   2.9531E+04  0.000E+00  0.000E+00  0.000E+00  2.24056E+03  6.107E-02  3.000E+00  4.500E+02  0.000E+00  0.000E+00
   1   36   26     1    14    2.9531E+04 -5.8677E+03   3.5398E+04  0.000E+00  0.000E+00  0.000E+00  2.22657E+03  6.695E-02  3.000E+00  1.080E+03  0.000E+00  0.000E+00
   1   35   26     1    15    3.5398E+04 -1.9891E+03   3.7387E+04  0.000E+00  0.000E+00  0.000E+00  2.21958E+03  7.983E-02  3.000E+00  4.500E+02  0.000E+00  0.000E+00
   1   35   27     1    16    3.7387E+04 -2.8295E+02   3.7670E+04  0.000E+00  0.000E+00  0.000E+00  2.21058E+03  8.081E-02  3.000E+00  6.750E+02  0.000E+00  0.000E+00
   1   36   28     1    17    3.7670E+04 -3.1877E+02   3.7989E+04  0.000E+00  0.000E+00  0.000E+00  2.19658E+03  8.330E-02  3.000E+00  7.650E+02  0.000E+00  0.000E+00
   1   36   29     1    18    3.7989E+04 -2.8023E+02   3.8269E+04  0.000E+00  0.000E+00  0.000E+00  2.18458E+03  8.485E-02  3.000E+00  6.750E+02  0.000E+00  0.000E+00
   1   36   30     1    19    3.8269E+04 -2.7929E+02   3.8549E+04  0.000E+00  0.000E+00  0.000E+00  2.17259E+03  8.624E-02  3.000E+00  6.750E+02  0.000E+00  0.000E+00
   1   36   31     1    20    3.8549E+04  4.4658E+02   3.8102E+04  0.000E+00  0.000E+00  0.000E+00  2.16158E+03  8.377E-02  3.000E+00  7.650E+02  0.000E+00  0.000E+00
   1   36   32     1    21    3.8102E+04 -9.4665E+01   3.8197E+04  0.000E+00  0.000E+00  0.000E+00  2.15058E+03  7.927E-02  3.000E+00  2.250E+02  0.000E+00  0.000E+00
   1   35   32     1    22    3.8197E+04 -4.7685E+03   4.2965E+04  0.000E+00  0.000E+00  0.000E+00  2.14258E+03  8.469E-02  3.000E+00  1.080E+03  0.000E+00  0.000E+00
   1   35   33     1    23    4.2965E+04 -9.3153E+01   4.3058E+04  0.000E+00  0.000E+00  0.000E+00  2.13559E+03  8.599E-02  3.000E+00  2.250E+02  0.000E+00  0.000E+00
   1   34   33     1    24    4.3058E+04 -3.6828E+03   4.6741E+04  0.000E+00  0.000E+00  0.000E+00  2.12659E+03  8.999E-02  3.000E+00  1.080E+03  0.000E+00  0.000E+00
   1   34   34     1    25    4.6741E+04 -9.0159E+01   4.6831E+04  0.000E+00  0.000E+00  0.000E+00  2.12060E+03  9.929E-02  3.000E+00  2.250E+02  0.000E+00  0.000E+00
   1   33   34     1    26    4.6831E+04 -1.8047E+02   4.7012E+04  0.000E+00  0.000E+00  0.000E+00  2.11560E+03  9.895E-02  3.000E+00  4.500E+02  0.000E+00  0.000E+00
   1   33   35     1    27    4.7012E+04 -2.1558E+02   4.7227E+04  0.000E+00  0.000E+00  0.000E+00  2.10760E+03  1.008E-01  3.000E+00  5.400E+02  0.000E+00  0.000E+00
   1   32   35     1    28    4.7227E+04 -6.3046E+02   4.7858E+04  0.000E+00  0.000E+00  0.000E+00  2.10260E+03  9.898E-02  3.000E+00  4.500E+02  0.000E+00  0.000E+00
   1   32   36     1    29    4.7858E+04 -3.0181E+02   4.8160E+04  0.000E+00  0.000E+00  0.000E+00  2.09361E+03  1.055E-01  3.000E+00  7.650E+02  0.000E+00  0.000E+00
   1   32   37     1    30    4.8160E+04 -2.5922E+02   4.8419E+04  0.000E+00  0.000E+00  0.000E+00  2.08662E+03  1.160E-01  3.000E+00  6.750E+02  0.000E+00  0.000E+00
   1   53   37     2     1    0.0000E+00 -3.3430E+02   3.3430E+02  0.000E+00  0.000E+00  0.000E+00  2.14750E+03  4.748E-03  3.000E+00  6.750E+02  0.000E+00  0.000E+00
   1   52   37     2     2    3.3430E+02  2.7281E+02   6.1481E+01  0.000E+00  0.000E+00  0.000E+00  2.14451E+03  5.212E-03  3.000E+00  5.400E+02  0.000E+00  0.000E+00
   1   52   38     2     3    6.1481E+01 -6.7189E+02   7.3337E+02  0.000E+00  0.000E+00  0.000E+00  2.14251E+03  6.905E-03  3.000E+00  4.500E+02  0.000E+00  0.000E+00
   1   51   38     2     4    7.3337E+02 -3.7315E+02   1.1065E+03  0.000E+00  0.000E+00  0.000E+00  2.13751E+03  1.222E-02  3.000E+00  7.650E+02  0.000E+00  0.000E+00
   1   50   38     2     5    1.1065E+03 -2.1700E+02   1.3235E+03  0.000E+00  0.000E+00  0.000E+00  2.13552E+03  1.777E-02  3.000E+00  4.500E+02  0.000E+00  0.000E+00
   1   50   39     2     6    1.3235E+03 -1.0843E+02   1.4320E+03  0.000E+00  0.000E+00  0.000E+00  2.13452E+03  1.811E-02  3.000E+00  2.250E+02  0.000E+00  0.000E+00
   1   49   39     2     7    1.4320E+03  3.4873E+02   1.0832E+03  0.000E+00  0.000E+00  0.000E+00  2.13252E+03  1.664E-02  3.000E+00  6.750E+02  0.000E+00  0.000E+00
   1   48   39     2     8    1.0832E+03  3.9325E+02   6.8998E+02  0.000E+00  0.000E+00  0.000E+00  2.12951E+03  1.405E-02  3.000E+00  7.650E+02  0.000E+00  0.000E+00
   1   47   39     2     9    6.8998E+02  2.3010E+02   4.5987E+02  0.000E+00  0.000E+00  0.000E+00  2.12751E+03  1.134E-02  3.000E+00  4.500E+02  0.000E+00  0.000E+00
   1   47   40     2    10    4.5987E+02 -6.6914E+02   1.1290E+03  0.000E+00  0.000E+00  0.000E+00  2.12651E+03  1.301E-02  3.000E+00  4.500E+02  0.000E+00  0.000E+00
   1   46   40     2    11    1.1290E+03 -3.2619E+02   1.4552E+03  0.000E+00  0.000E+00  0.000E+00  2.12452E+03  1.676E-02  3.000E+00  6.750E+02  0.000E+00  0.000E+00
   1   45   40     2    12    1.4552E+03 -6.6621E+02   2.1214E+03  0.000E+00  0.000E+00  0.000E+00  2.12252E+03  1.952E-02  3.000E+00  4.500E+02  0.000E+00  0.000E+00
   1   45   39     2    13    2.1214E+03 -1.3259E+03   3.4473E+03  0.000E+00  0.000E+00  0.000E+00  2.12053E+03  2.681E-02  3.000E+00  9.000E+02  0.000E+00  0.000E+00
   1   44   39     2    14    3.4473E+03  4.0386E+02   3.0434E+03  0.000E+00  0.000E+00  0.000E+00  2.11853E+03  2.792E-02  3.000E+00  7.650E+02  0.000E+00  0.000E+00
   1   43   38     2    15    3.0434E+03  4.0056E+02   2.6429E+03  0.000E+00  0.000E+00  0.000E+00  2.11352E+03  2.361E-02  3.000E+00  7.650E+02  0.000E+00  0.000E+00
   1   42   38     2    16    2.6429E+03 -3.2131E+02   2.9642E+03  0.000E+00  0.000E+00  0.000E+00  2.10852E+03  2.399E-02  3.000E+00  6.750E+02  0.000E+00  0.000E+00
   1   41   38     2    17    2.9642E+03 -3.6137E+02   3.3255E+03  0.000E+00  0.000E+00  0.000E+00  2.10453E+03  2.762E-02  3.000E+00  7.650E+02  0.000E+00  0.000E+00
   1   40   38     2    18    3.3255E+03 -1.0697E+02   3.4325E+03  0.000E+00  0.000E+00  0.000E+00  2.10252E+03  2.458E-02  3.000E+00  2.250E+02  0.000E+00  0.000E+00
   1   40   39     2    19    3.4325E+03 -4.9191E+03   8.3516E+03  0.000E+00  0.000E+00  0.000E+00  2.09753E+03  3.431E-02  3.000E+00  9.000E+02  0.000E+00  0.000E+00
   1   39   39     2    20    8.3516E+03  4.1687E+02   7.9348E+03  0.000E+00  0.000E+00  0.000E+00  2.09454E+03  4.492E-02  3.000E+00  7.650E+02  0.000E+00  0.000E+00
   1   38   39     2    21    7.9348E+03 -2.2289E+03   1.0164E+04  0.000E+00  0.000E+00  0.000E+00  2.08854E+03  4.319E-02  3.000E+00  1.530E+03  0.000E+00  0.000E+00
   1   37   40     2    22    1.0164E+04 -3.4787E+02   1.0512E+04  0.000E+00  0.000E+00  0.000E+00  2.08055E+03  4.526E-02  3.000E+00  7.650E+02  0.000E+00  0.000E+00
   1   36   40     2    23    1.0512E+04 -2.2036E+03   1.2715E+04  0.000E+00  0.000E+00  0.000E+00  2.07455E+03  5.155E-02  3.000E+00  9.000E+02  0.000E+00  0.000E+00
   1   36   41     2    24    1.2715E+04 -6.4749E+02   1.3363E+04  0.000E+00  0.000E+00  0.000E+00  2.07256E+03  6.113E-02  3.000E+00  4.500E+02  0.000E+00  0.000E+00
   1   35   41     2    25    1.3363E+04 -3.3180E+02   1.3694E+04  0.000E+00  0.000E+00  0.000E+00  2.06957E+03  6.627E-02  3.000E+00  7.650E+02  0.000E+00  0.000E+00
   1   34   41     2    26    1.3694E+04  3.8022E+02   1.3314E+04  0.000E+00  0.000E+00  0.000E+00  2.06656E+03  6.328E-02  3.000E+00  6.750E+02  0.000E+00  0.000E+00
   1   33   41     2    27    1.3314E+04  3.7813E+02   1.2936E+04  0.000E+00  0.000E+00  0.000E+00  2.06156E+03  6.019E-02  3.000E+00  6.750E+02  0.000E+00  0.000E+00
   1   32   41     2    28    1.2936E+04 -3.3809E+02   1.3274E+04  0.000E+00  0.000E+00  0.000E+00  2.05756E+03  5.805E-02  3.000E+00  7.650E+02  0.000E+00  0.000E+00
   1   31   42     2    29    1.3274E+04 -3.7979E+02   1.3654E+04  0.000E+00  0.000E+00  0.000E+00  2.04956E+03  5.581E-02  3.000E+00  8.550E+02  0.000E+00  0.000E+00
   1   31   33     3     1    0.0000E+00 -3.3536E+03   3.3536E+03  0.000E+00  0.000E+00  0.000E+00  2.11652E+03  1.585E-02  3.000E+00  1.350E+03  0.000E+00  0.000E+00
   1   31   34     3     2    3.3536E+03  3.5182E+02   3.0018E+03  0.000E+00  0.000E+00  0.000E+00  2.11052E+03  2.121E-02  3.000E+00  6.750E+02  0.000E+00  0.000E+00
   1   31   35     3     3    3.0018E+03 -3.6625E+02   3.3680E+03  0.000E+00  0.000E+00  0.000E+00  2.09952E+03  2.124E-02  3.000E+00  7.650E+02  0.000E+00  0.000E+00
   1   31   36     3     4    3.3680E+03 -2.2520E+03   5.6200E+03  0.000E+00  0.000E+00  0.000E+00  2.09253E+03  2.814E-02  3.000E+00  1.530E+03  0.000E+00  0.000E+00
   1   31   37     3     5    5.6200E+03 -3.1560E+02   5.9356E+03  0.000E+00  0.000E+00  0.000E+00  2.08553E+03  3.244E-02  3.000E+00  6.750E+02  0.000E+00  0.000E+00
   1   48   48     4     1    0.0000E+00 -2.0028E+03   2.0028E+03  0.000E+00  0.000E+00  0.000E+00  2.11352E+03  1.647E-02  3.000E+00  1.350E+03  0.000E+00  0.000E+00
   1   47   48     4     2    2.0028E+03 -3.6459E+02   2.3674E+03  0.000E+00  0.000E+00  0.000E+00  2.11152E+03  2.341E-02  3.000E+00  7.650E+02  0.000E+00  0.000E+00
   1   46   48     4     3    2.3674E+03 -6.6431E+02   3.0317E+03  0.000E+00  0.000E+00  0.000E+00  2.10952E+03  2.376E-02  3.000E+00  4.500E+02  0.000E+00  0.000E+00
   1   46   47     4     4    3.0317E+03 -1.3217E+03   4.3533E+03  0.000E+00  0.000E+00  0.000E+00  2.10753E+03  3.147E-02  3.000E+00  9.000E+02  0.000E+00  0.000E+00
   1   45   47     4     5    4.3533E+03  3.6126E+02   3.9921E+03  0.000E+00  0.000E+00  0.000E+00  2.10554E+03  3.520E-02  3.000E+00  6.750E+02  0.000E+00  0.000E+00
   1   44   47     4     6    3.9921E+03  4.0525E+02   3.5868E+03  0.000E+00  0.000E+00  0.000E+00  2.10253E+03  2.973E-02  3.000E+00  7.650E+02  0.000E+00  0.000E+00
   1   43   47     4     7    3.5868E+03 -1.9872E+03   5.5740E+03  0.000E+00  0.000E+00  0.000E+00  2.09753E+03  2.800E-02  3.000E+00  1.350E+03  0.000E+00  0.000E+00
   1   42   47     4     8    5.5740E+03 -3.3298E+03   8.9038E+03  0.000E+00  0.000E+00  0.000E+00  2.08853E+03  3.350E-02  3.000E+00  1.350E+03  0.000E+00  0.000E+00
   1   41   47     4     9    8.9038E+03 -1.3131E+03   1.0217E+04  0.000E+00  0.000E+00  0.000E+00  2.08054E+03  4.095E-02  3.000E+00  9.000E+02  0.000E+00  0.000E+00
   1   41   48     4    10    1.0217E+04 -1.1054E+03   1.1322E+04  0.000E+00  0.000E+00  0.000E+00  2.07754E+03  4.356E-02  3.000E+00  4.500E+02  0.000E+00  0.000E+00
   1   40   48     4    11    1.1322E+04 -3.0614E+02   1.1629E+04  0.000E+00  0.000E+00  0.000E+00  2.07055E+03  4.646E-02  3.000E+00  6.750E+02  0.000E+00  0.000E+00
   1   39   48     4    12    1.1629E+04 -4.6535E+03   1.6282E+04  0.000E+00  0.000E+00  0.000E+00  2.06455E+03  5.299E-02  3.000E+00  1.350E+03  0.000E+00  0.000E+00
   1   38   47     4    13    1.6282E+04  3.7503E+02   1.5907E+04  0.000E+00  0.000E+00  0.000E+00  2.05556E+03  5.561E-02  3.000E+00  6.750E+02  0.000E+00  0.000E+00
   1   37   47     4    14    1.5907E+04 -3.0093E+02   1.6208E+04  0.000E+00  0.000E+00  0.000E+00  2.04755E+03  5.419E-02  3.000E+00  6.750E+02  0.000E+00  0.000E+00
   1   36   48     4    15    1.6208E+04 -3.3938E+02   1.6547E+04  0.000E+00  0.000E+00  0.000E+00  2.03656E+03  5.637E-02  3.000E+00  7.650E+02  0.000E+00  0.000E+00
   1   35   48     4    16    1.6547E+04 -9.9174E+01   1.6646E+04  0.000E+00  0.000E+00  0.000E+00  2.03256E+03  5.923E-02  3.000E+00  2.250E+02  0.000E+00  0.000E+00
   1   35   49     4    17    1.6646E+04 -1.9977E+02   1.6846E+04  0.000E+00  0.000E+00  0.000E+00  2.02756E+03  5.607E-02  3.000E+00  4.500E+02  0.000E+00  0.000E+00
   1   34   49     4    18    1.6846E+04 -1.5527E+03   1.8399E+04  0.000E+00  0.000E+00  0.000E+00  2.02156E+03  6.234E-02  3.000E+00  1.080E+03  0.000E+00  0.000E+00
   1   34   50     4    19    1.8399E+04 -6.4317E+02   1.9042E+04  0.000E+00  0.000E+00  0.000E+00  2.01857E+03  7.074E-02  3.000E+00  4.500E+02  0.000E+00  0.000E+00
   1   33   50     4    20    1.9042E+04  4.8846E+02   1.8554E+04  0.000E+00  0.000E+00  0.000E+00  2.01457E+03  7.130E-02  3.000E+00  8.550E+02  0.000E+00  0.000E+00
   1   55   72     5     1    0.0000E+00 -3.3507E+03   3.3507E+03  0.000E+00  0.000E+00  0.000E+00  2.00152E+03  1.797E-02  3.000E+00  1.350E+03  0.000E+00  0.000E+00
   1   54   72     5     2    3.3507E+03 -3.1931E+02   3.6701E+03  0.000E+00  0.000E+00  0.000E+00  1.99753E+03  2.695E-02  3.000E+00  6.750E+02  0.000E+00  0.000E+00
   1   53   72     5     3    3.6701E+03  3.5356E+02   3.3165E+03  0.000E+00  0.000E+00  0.000E+00  1.99252E+03  2.379E-02  3.000E+00  6.750E+02  0.000E+00  0.000E+00
   1   52   72     5     4    3.3165E+03 -3.6435E+02   3.6808E+03  0.000E+00  0.000E+00  0.000E+00  1.98352E+03  2.372E-02  3.000E+00  7.650E+02  0.000E+00  0.000E+00
   1   51   72     5     5    3.6808E+03  4.0074E+02   3.2801E+03  0.000E+00  0.000E+00  0.000E+00  1.97752E+03  2.384E-02  3.000E+00  7.650E+02  0.000E+00  0.000E+00
   1   50   73     5     6    3.2801E+03 -3.6432E+02   3.6444E+03  0.000E+00  0.000E+00  0.000E+00  1.96852E+03  2.376E-02  3.000E+00  7.650E+02  0.000E+00  0.000E+00
   1   49   73     5     7    3.6444E+03 -3.6296E+02   4.0074E+03  0.000E+00  0.000E+00  0.000E+00  1.96253E+03  2.555E-02  3.000E+00  7.650E+02  0.000E+00  0.000E+00
   1   48   73     5     8    4.0074E+03 -1.0657E+02   4.1140E+03  0.000E+00  0.000E+00  0.000E+00  1.95653E+03  2.636E-02  3.000E+00  2.250E+02  0.000E+00  0.000E+00
   1   48   74     5     9    4.1140E+03 -2.2202E+03   6.3342E+03  0.000E+00  0.000E+00  0.000E+00  1.95453E+03  3.307E-02  3.000E+00  9.000E+02  0.000E+00  0.000E+00
   1   47   74     5    10    6.3342E+03 -3.5422E+02   6.6884E+03  0.000E+00  0.000E+00  0.000E+00  1.94954E+03  3.697E-02  3.000E+00  7.650E+02  0.000E+00  0.000E+00
   1   46   75     5    11    6.6884E+03  4.1266E+02   6.2758E+03  0.000E+00  0.000E+00  0.000E+00  1.94354E+03  3.942E-02  3.000E+00  7.650E+02  0.000E+00  0.000E+00
   1   45   75     5    12    6.2758E+03  1.2144E+02   6.1543E+03  0.000E+00  0.000E+00  0.000E+00  1.94154E+03  3.973E-02  3.000E+00  2.250E+02  0.000E+00  0.000E+00
   1   45   76     5    13    6.1543E+03  2.9022E+02   5.8641E+03  0.000E+00  0.000E+00  0.000E+00  1.93854E+03  3.744E-02  3.000E+00  5.400E+02  0.000E+00  0.000E+00
   1   44   76     5    14    5.8641E+03  1.2133E+02   5.7428E+03  0.000E+00  0.000E+00  0.000E+00  1.93654E+03  3.926E-02  3.000E+00  2.250E+02  0.000E+00  0.000E+00
   1   45   62     6     1    0.0000E+00 -2.0069E+03   2.0069E+03  0.000E+00  0.000E+00  0.000E+00  2.00451E+03  1.340E-02  3.000E+00  1.350E+03  0.000E+00  0.000E+00
   1   44   62     6     2    2.0069E+03 -3.6748E+02   2.3744E+03  0.000E+00  0.000E+00  0.000E+00  1.99952E+03  1.963E-02  3.000E+00  7.650E+02  0.000E+00  0.000E+00
   1   43   62     6     3    2.3744E+03  1.1659E+02   2.2578E+03  0.000E+00  0.000E+00  0.000E+00  1.99552E+03  1.817E-02  3.000E+00  2.250E+02  0.000E+00  0.000E+00
   1   43   63     6     4    2.2578E+03 -1.3304E+03   3.5882E+03  0.000E+00  0.000E+00  0.000E+00  1.99152E+03  2.174E-02  3.000E+00  9.000E+02  0.000E+00  0.000E+00
   1   42   63     6     5    3.5882E+03 -3.6288E+02   3.9511E+03  0.000E+00  0.000E+00  0.000E+00  1.98553E+03  2.565E-02  3.000E+00  7.650E+02  0.000E+00  0.000E+00
   1   41   63     6     6    3.9511E+03  3.5482E+02   3.5963E+03  0.000E+00  0.000E+00  0.000E+00  1.97953E+03  2.567E-02  3.000E+00  6.750E+02  0.000E+00  0.000E+00
   1   40   63     6     7    3.5963E+03 -3.6285E+02   3.9592E+03  0.000E+00  0.000E+00  0.000E+00  1.97353E+03  2.568E-02  3.000E+00  7.650E+02  0.000E+00  0.000E+00
   1   24   55     7     1    0.0000E+00 -2.2373E+03   2.2373E+03  0.000E+00  0.000E+00  0.000E+00  2.03351E+03  1.410E-02  3.000E+00  9.000E+02  0.000E+00  0.000E+00
   1   25   55     7     2    2.2373E+03  1.1649E+02   2.1208E+03  0.000E+00  0.000E+00  0.000E+00  2.03152E+03  1.772E-02  3.000E+00  2.250E+02  0.000E+00  0.000E+00
   1   25   56     7     3    2.1208E+03 -1.3310E+03   3.4518E+03  0.000E+00  0.000E+00  0.000E+00  2.02652E+03  2.112E-02  3.000E+00  9.000E+02  0.000E+00  0.000E+00
   1   26   56     7     4    3.4518E+03 -3.6158E+02   3.8134E+03  0.000E+00  0.000E+00  0.000E+00  2.02253E+03  2.735E-02  3.000E+00  7.650E+02  0.000E+00  0.000E+00
   1   27   56     7     5    3.8134E+03 -3.1835E+02   4.1317E+03  0.000E+00  0.000E+00  0.000E+00  2.01753E+03  2.836E-02  3.000E+00  6.750E+02  0.000E+00  0.000E+00
   1   28   57     7     6    4.1317E+03 -3.1767E+02   4.4494E+03  0.000E+00  0.000E+00  0.000E+00  2.01253E+03  2.938E-02  3.000E+00  6.750E+02  0.000E+00  0.000E+00
   1   29   57     7     7    4.4494E+03 -3.1680E+02   4.7662E+03  0.000E+00  0.000E+00  0.000E+00  2.00753E+03  3.067E-02  3.000E+00  6.750E+02  0.000E+00  0.000E+00
   1   30   57     7     8    4.7662E+03 -3.1521E+02   5.0814E+03  0.000E+00  0.000E+00  0.000E+00  2.00253E+03  3.302E-02  3.000E+00  6.750E+02  0.000E+00  0.000E+00
   1   31   57     7     9    5.0814E+03 -3.1408E+02   5.3955E+03  0.000E+00  0.000E+00  0.000E+00  1.99853E+03  3.469E-02  3.000E+00  6.750E+02  0.000E+00  0.000E+00
   1   32   57     7    10    5.3955E+03 -3.5296E+02   5.7485E+03  0.000E+00  0.000E+00  0.000E+00  1.99354E+03  3.861E-02  3.000E+00  7.650E+02  0.000E+00  0.000E+00
   1   33   57     7    11    5.7485E+03  2.9464E+02   5.4538E+03  0.000E+00  0.000E+00  0.000E+00  1.99155E+03  4.563E-02  3.000E+00  5.400E+02  0.000E+00  0.000E+00
   1   33   58     7    12    5.4538E+03 -1.0451E+02   5.5583E+03  0.000E+00  0.000E+00  0.000E+00  1.99054E+03  3.552E-02  3.000E+00  2.250E+02  0.000E+00  0.000E+00
   1   34   58     7    13    5.5583E+03 -2.5151E+02   5.8098E+03  0.000E+00  0.000E+00  0.000E+00  1.98653E+03  3.425E-02  3.000E+00  5.400E+02  0.000E+00  0.000E+00
   1   34   59     7    14    5.8098E+03 -6.5726E+02   6.4671E+03  0.000E+00  0.000E+00  0.000E+00  1.98454E+03  3.943E-02  3.000E+00  4.500E+02  0.000E+00  0.000E+00
   1   35   59     7    15    6.4671E+03  4.1302E+02   6.0541E+03  0.000E+00  0.000E+00  0.000E+00  1.98154E+03  3.990E-02  3.000E+00  7.650E+02  0.000E+00  0.000E+00
   1   36   59     7    16    6.0541E+03  3.6307E+02   5.6910E+03  0.000E+00  0.000E+00  0.000E+00  1.97754E+03  3.788E-02  3.000E+00  6.750E+02  0.000E+00  0.000E+00
   1   37   60     7    17    5.6910E+03 -2.4952E+03   8.1862E+03  0.000E+00  0.000E+00  0.000E+00  1.97254E+03  4.081E-02  3.000E+00  1.710E+03  0.000E+00  0.000E+00
   1   23   71     8     1    0.0000E+00  0.0000E+00   0.0000E+00  0.000E+00  0.000E+00  0.000E+00  2.05250E+03  0.000E+00  3.000E+00  6.750E+02  0.000E+00  0.000E+00
   1   24   71     8     2    0.0000E+00 -3.7837E+02   3.7837E+02  0.000E+00  0.000E+00  0.000E+00  2.04851E+03  5.393E-03  3.000E+00  7.650E+02  0.000E+00  0.000E+00
   1   25   71     8     3    3.7837E+02  3.4219E+02   3.6186E+01  0.000E+00  0.000E+00  0.000E+00  2.04651E+03  6.946E-03  3.000E+00  6.750E+02  0.000E+00  0.000E+00
   1   26   71     8     4    3.6186E+01 -3.7609E+02   4.1227E+02  0.000E+00  0.000E+00  0.000E+00  2.04551E+03  8.384E-03  3.000E+00  7.650E+02  0.000E+00  0.000E+00
   1   27   72     8     5    4.1227E+02 -3.7156E+02   7.8383E+02  0.000E+00  0.000E+00  0.000E+00  2.04451E+03  1.430E-02  3.000E+00  7.650E+02  0.000E+00  0.000E+00
   1   27   73     8     6    7.8383E+02 -2.0134E+03   2.7972E+03  0.000E+00  0.000E+00  0.000E+00  2.04353E+03  2.582E-02  3.000E+00  4.500E+02  0.000E+00  0.000E+00
   1   28   73     8     7    2.7972E+03 -2.2275E+03   5.0247E+03  0.000E+00  0.000E+00  0.000E+00  2.04254E+03  4.412E-02  3.000E+00  1.530E+03  0.000E+00  0.000E+00
   1   29   73     8     8    5.0247E+03 -3.2908E+03   8.3155E+03  0.000E+00  0.000E+00  0.000E+00  2.04156E+03  6.239E-02  3.000E+00  1.350E+03  0.000E+00  0.000E+00
   1   30   73     8     9    8.3155E+03 -1.9416E+03   1.0257E+04  0.000E+00  0.000E+00  0.000E+00  2.04056E+03  6.181E-02  3.000E+00  1.350E+03  0.000E+00  0.000E+00
   1   31   73     8    10    1.0257E+04 -3.0121E+02   1.0558E+04  0.000E+00  0.000E+00  0.000E+00  2.03755E+03  5.376E-02  3.000E+00  6.750E+02  0.000E+00  0.000E+00
   1   32   73     8    11    1.0558E+04 -1.9532E+03   1.2511E+04  0.000E+00  0.000E+00  0.000E+00  2.03255E+03  5.319E-02  3.000E+00  1.350E+03  0.000E+00  0.000E+00
   1   33   73     8    12    1.2511E+04 -3.2955E+03   1.5807E+04  0.000E+00  0.000E+00  0.000E+00  2.02756E+03  5.892E-02  3.000E+00  1.350E+03  0.000E+00  0.000E+00
   1   34   73     8    13    1.5807E+04 -1.1012E+03   1.6908E+04  0.000E+00  0.000E+00  0.000E+00  2.02355E+03  5.299E-02  3.000E+00  4.500E+02  0.000E+00  0.000E+00
   1   34   74     8    14    1.6908E+04 -2.1975E+03   1.9106E+04  0.000E+00  0.000E+00  0.000E+00  2.01556E+03  5.839E-02  3.000E+00  9.000E+02  0.000E+00  0.000E+00
   1   35   74     8    15    1.9106E+04  3.8327E+02   1.8722E+04  0.000E+00  0.000E+00  0.000E+00  2.01157E+03  6.781E-02  3.000E+00  6.750E+02  0.000E+00  0.000E+00
   1   36   74     8    16    1.8722E+04 -1.0964E+03   1.9819E+04  0.000E+00  0.000E+00  0.000E+00  2.00656E+03  6.363E-02  3.000E+00  4.500E+02  0.000E+00  0.000E+00
   1   36   73     8    17    1.9819E+04 -3.9951E+03   2.3814E+04  0.000E+00  0.000E+00  0.000E+00  2.00256E+03  6.098E-02  3.000E+00  9.000E+02  0.000E+00  0.000E+00
   1   37   73     8    18    2.3814E+04 -6.7818E+03   3.0596E+04  0.000E+00  0.000E+00  0.000E+00  1.99057E+03  6.746E-02  3.000E+00  1.530E+03  0.000E+00  0.000E+00
   1   38   72     8    19    3.0596E+04  3.8885E+02   3.0207E+04  0.000E+00  0.000E+00  0.000E+00  1.97758E+03  7.607E-02  3.000E+00  6.750E+02  0.000E+00  0.000E+00
   1   39   72     8    20    3.0207E+04  3.9105E+02   2.9816E+04  0.000E+00  0.000E+00  0.000E+00  1.96858E+03  7.933E-02  3.000E+00  6.750E+02  0.000E+00  0.000E+00
   1   40   72     8    21    2.9816E+04 -2.8094E+02   3.0097E+04  0.000E+00  0.000E+00  0.000E+00  1.95958E+03  8.380E-02  3.000E+00  6.750E+02  0.000E+00  0.000E+00
   1   41   72     8    22    3.0097E+04  3.9321E+02   2.9703E+04  0.000E+00  0.000E+00  0.000E+00  1.95358E+03  8.253E-02  3.000E+00  6.750E+02  0.000E+00  0.000E+00
   1   42   72     8    23    2.9703E+04 -9.4744E+01   2.9798E+04  0.000E+00  0.000E+00  0.000E+00  1.94658E+03  7.891E-02  3.000E+00  2.250E+02  0.000E+00  0.000E+00
   1   42   73     8    24    2.9798E+04  1.3251E+02   2.9666E+04  0.000E+00  0.000E+00  0.000E+00  1.94459E+03  8.895E-02  3.000E+00  2.250E+02  0.000E+00  0.000E+00
   1   31   38     9     1    5.4354E+04 -1.8412E+03   5.6196E+04  0.000E+00  0.000E+00  0.000E+00  2.07764E+03  1.362E-01  3.000E+00  1.350E+03  0.000E+00  0.000E+00
   1   31   39     9     2    5.6196E+04 -2.5489E+02   5.6450E+04  0.000E+00  0.000E+00  0.000E+00  2.07262E+03  1.224E-01  3.000E+00  6.750E+02  0.000E+00  0.000E+00
   1   31   40     9     3    5.6450E+04 -2.5916E+02   5.6710E+04  0.000E+00  0.000E+00  0.000E+00  2.06262E+03  1.161E-01  3.000E+00  6.750E+02  0.000E+00  0.000E+00
   1   31   41     9     4    5.6710E+04 -2.5221E+02   5.6962E+04  0.000E+00  0.000E+00  0.000E+00  2.05463E+03  1.264E-01  3.000E+00  6.750E+02  0.000E+00  0.000E+00
   1   31   42     9     5    5.6962E+04 -1.8997E+02   5.7152E+04  0.000E+00  0.000E+00  0.000E+00  2.04965E+03  1.482E-01  3.000E+00  5.400E+02  0.000E+00  0.000E+00
   1   30   42     9     6    5.7152E+04 -1.4892E+03   5.8641E+04  0.000E+00  0.000E+00  0.000E+00  2.04869E+03  1.907E-01  3.000E+00  4.500E+02  0.000E+00  0.000E+00
   1   30   43    10     1    7.2295E+04 -1.8038E+03   7.4099E+04  0.000E+00  0.000E+00  0.000E+00  2.04266E+03  1.639E-01  3.000E+00  1.350E+03  0.000E+00  0.000E+00
   1   30   44    10     2    7.4099E+04 -1.1899E+03   7.5289E+04  0.000E+00  0.000E+00  0.000E+00  2.03868E+03  1.778E-01  3.000E+00  9.000E+02  0.000E+00  0.000E+00
   1   29   44    10     3    7.5289E+04 -1.0418E+03   7.6331E+04  0.000E+00  0.000E+00  0.000E+00  2.03768E+03  1.849E-01  3.000E+00  4.500E+02  0.000E+00  0.000E+00
   1   29   45    10     4    7.6331E+04 -2.1981E+02   7.6550E+04  0.000E+00  0.000E+00  0.000E+00  2.03467E+03  1.743E-01  3.000E+00  6.750E+02  0.000E+00  0.000E+00
   1   29   46    10     5    7.6550E+04  4.5508E+02   7.6095E+04  0.000E+00  0.000E+00  0.000E+00  2.03067E+03  1.742E-01  3.000E+00  6.750E+02  0.000E+00  0.000E+00
   1   29   47    10     6    7.6095E+04  1.4940E+02   7.5946E+04  0.000E+00  0.000E+00  0.000E+00  2.02766E+03  1.640E-01  3.000E+00  2.250E+02  0.000E+00  0.000E+00
   1   30   47    10     7    7.5946E+04 -1.4293E+02   7.6089E+04  0.000E+00  0.000E+00  0.000E+00  2.02468E+03  1.824E-01  3.000E+00  4.500E+02  0.000E+00  0.000E+00
   1   30   48    10     8    7.6089E+04  5.3145E+02   7.5557E+04  0.000E+00  0.000E+00  0.000E+00  2.02269E+03  1.947E-01  3.000E+00  7.650E+02  0.000E+00  0.000E+00
   1   31   49    10     9    7.5557E+04  5.7713E+02   7.4980E+04  0.000E+00  0.000E+00  0.000E+00  2.01868E+03  1.750E-01  3.000E+00  8.550E+02  0.000E+00  0.000E+00
   1   32   50    10    10    7.4980E+04 -2.8520E+02   7.5265E+04  0.000E+00  0.000E+00  0.000E+00  2.01267E+03  1.664E-01  3.000E+00  8.550E+02  0.000E+00  0.000E+00
   1   32   51    11     1    9.3819E+04 -3.0970E+03   9.6916E+04  0.000E+00  0.000E+00  0.000E+00  2.00771E+03  2.059E-01  3.000E+00  1.350E+03  0.000E+00  0.000E+00
   1   33   52    11     2    9.6916E+04 -2.3051E+02   9.7146E+04  0.000E+00  0.000E+00  0.000E+00  2.00370E+03  1.987E-01  3.000E+00  7.650E+02  0.000E+00  0.000E+00
   1   33   53    11     3    9.7146E+04 -2.4009E+03   9.9547E+04  0.000E+00  0.000E+00  0.000E+00  1.99966E+03  1.647E-01  3.000E+00  4.500E+02  0.000E+00  0.000E+00
   1   34   53    11     4    9.9547E+04 -1.4345E+03   1.0098E+05  0.000E+00  0.000E+00  0.000E+00  1.99267E+03  1.718E-01  3.000E+00  1.080E+03  0.000E+00  0.000E+00
   1   34   54    11     5    1.0098E+05 -1.1484E+03   1.0213E+05  0.000E+00  0.000E+00  0.000E+00  1.98972E+03  2.240E-01  3.000E+00  9.000E+02  0.000E+00  0.000E+00
   1   35   54    11     6    1.0213E+05 -5.6457E+02   1.0269E+05  0.000E+00  0.000E+00  0.000E+00  1.98875E+03  2.454E-01  3.000E+00  4.500E+02  0.000E+00  0.000E+00
   1   35   55    11     7    1.0269E+05  5.6438E+02   1.0213E+05  0.000E+00  0.000E+00  0.000E+00  1.98674E+03  2.378E-01  3.000E+00  7.650E+02  0.000E+00  0.000E+00
   1   35   56    11     8    1.0213E+05 -2.0593E+02   1.0234E+05  0.000E+00  0.000E+00  0.000E+00  1.98373E+03  2.308E-01  3.000E+00  7.650E+02  0.000E+00  0.000E+00
   1   36   57    11     9    1.0234E+05 -2.1011E+02   1.0255E+05  0.000E+00  0.000E+00  0.000E+00  1.97975E+03  2.543E-01  3.000E+00  8.550E+02  0.000E+00  0.000E+00
   1   36   58    11    10    1.0255E+05 -1.4697E+02   1.0269E+05  0.000E+00  0.000E+00  0.000E+00  1.97878E+03  2.823E-01  3.000E+00  6.750E+02  0.000E+00  0.000E+00
   1   36   59    11    11    1.0269E+05 -1.1177E+02   1.0281E+05  0.000E+00  0.000E+00  0.000E+00  1.97675E+03  2.516E-01  3.000E+00  4.500E+02  0.000E+00  0.000E+00
   1   37   59    11    12    1.0281E+05  1.7214E+02   1.0263E+05  0.000E+00  0.000E+00  0.000E+00  1.97577E+03  2.651E-01  3.000E+00  2.250E+02  0.000E+00  0.000E+00
   1   37   60    11    13    1.0263E+05  4.2807E+02   1.0221E+05  0.000E+00  0.000E+00  0.000E+00  1.97479E+03  2.927E-01  3.000E+00  5.400E+02  0.000E+00  0.000E+00
   1   38   60    11    14    1.0221E+05 -3.8203E+01   1.0224E+05  0.000E+00  0.000E+00  0.000E+00  1.97383E+03  3.302E-01  3.000E+00  2.250E+02  0.000E+00  0.000E+00
   1   38   61    12     1    1.1043E+05 -1.1783E+02   1.1055E+05  0.000E+00  0.000E+00  0.000E+00  1.97185E+03  3.460E-01  3.000E+00  7.650E+02  0.000E+00  0.000E+00
   1   38   62    12     2    1.1055E+05 -1.3175E+02   1.1068E+05  0.000E+00  0.000E+00  0.000E+00  1.97083E+03  3.278E-01  3.000E+00  7.650E+02  0.000E+00  0.000E+00
   1   38   63    12     3    1.1068E+05 -4.7164E+01   1.1073E+05  0.000E+00  0.000E+00  0.000E+00  1.96979E+03  2.904E-01  3.000E+00  2.250E+02  0.000E+00  0.000E+00
   1   39   63    12     4    1.1073E+05 -1.1032E+03   1.1183E+05  0.000E+00  0.000E+00  0.000E+00  1.96877E+03  2.743E-01  3.000E+00  9.000E+02  0.000E+00  0.000E+00
   1   39   64    13     1    1.1579E+05 -1.7675E+02   1.1597E+05  0.000E+00  0.000E+00  0.000E+00  1.96780E+03  3.036E-01  3.000E+00  9.000E+02  0.000E+00  0.000E+00
   1   39   65    13     2    1.1597E+05 -1.0849E+03   1.1705E+05  0.000E+00  0.000E+00  0.000E+00  1.96679E+03  2.946E-01  3.000E+00  9.000E+02  0.000E+00  0.000E+00
   1   40   65    13     3    1.1705E+05 -2.3129E+03   1.1936E+05  0.000E+00  0.000E+00  0.000E+00  1.96586E+03  3.603E-01  3.000E+00  4.500E+02  0.000E+00  0.000E+00
   1   40   66    13     4    1.1936E+05 -1.1134E+02   1.1947E+05  0.000E+00  0.000E+00  0.000E+00  1.96484E+03  3.351E-01  3.000E+00  6.750E+02  0.000E+00  0.000E+00
   1   40   67    13     5    1.1947E+05  5.3044E+02   1.1894E+05  0.000E+00  0.000E+00  0.000E+00  1.96279E+03  2.858E-01  3.000E+00  6.750E+02  0.000E+00  0.000E+00
   1   40   68    13     6    1.1894E+05 -1.2926E+02   1.1907E+05  0.000E+00  0.000E+00  0.000E+00  1.96081E+03  3.085E-01  3.000E+00  6.750E+02  0.000E+00  0.000E+00
   1   41   69    13     7    1.1907E+05  5.3275E+02   1.1854E+05  0.000E+00  0.000E+00  0.000E+00  1.95979E+03  2.893E-01  3.000E+00  6.750E+02  0.000E+00  0.000E+00
   1   41   70    13     8    1.1854E+05 -2.2818E+02   1.1877E+05  0.000E+00  0.000E+00  0.000E+00  1.95673E+03  2.331E-01  3.000E+00  8.550E+02  0.000E+00  0.000E+00
   1   42   71    13     9    1.1877E+05 -2.0519E+02   1.1897E+05  0.000E+00  0.000E+00  0.000E+00  1.95073E+03  2.318E-01  3.000E+00  7.650E+02  0.000E+00  0.000E+00
   1   42   72    13    10    1.1897E+05  5.0086E+02   1.1847E+05  0.000E+00  0.000E+00  0.000E+00  1.94774E+03  2.420E-01  3.000E+00  6.750E+02  0.000E+00  0.000E+00
   1   42   73    13    11    1.1847E+05  1.6257E+02   1.1831E+05  0.000E+00  0.000E+00  0.000E+00  1.94472E+03  2.225E-01  3.000E+00  2.250E+02  0.000E+00  0.000E+00
   1   42   73    14     1    1.4798E+05 -4.7660E+01   1.4802E+05  0.000E+00  0.000E+00  0.000E+00  1.94379E+03  2.882E-01  3.000E+00  2.250E+02  0.000E+00  0.000E+00
   1   43   73    14     2    1.4802E+05 -5.2632E+02   1.4855E+05  0.000E+00  0.000E+00  0.000E+00  1.94283E+03  3.304E-01  3.000E+00  4.500E+02  0.000E+00  0.000E+00
   1   43   74    14     3    1.4855E+05  6.3893E+02   1.4791E+05  0.000E+00  0.000E+00  0.000E+00  1.94184E+03  3.352E-01  3.000E+00  7.650E+02  0.000E+00  0.000E+00
   1   43   75    14     4    1.4791E+05 -8.2348E+01   1.4799E+05  0.000E+00  0.000E+00  0.000E+00  1.93982E+03  3.170E-01  3.000E+00  4.500E+02  0.000E+00  0.000E+00
   1   44   75    14     5    1.4799E+05 -4.5093E+01   1.4804E+05  0.000E+00  0.000E+00  0.000E+00  1.93880E+03  2.996E-01  3.000E+00  2.250E+02  0.000E+00  0.000E+00
   1   44   76    14     6    1.4804E+05  5.6333E+02   1.4748E+05  0.000E+00  0.000E+00  0.000E+00  1.93683E+03  3.346E-01  3.000E+00  6.750E+02  0.000E+00  0.000E+00
   1   44   77    15     1    1.5322E+05  6.1331E+02   1.5260E+05  0.000E+00  0.000E+00  0.000E+00  1.93591E+03  4.086E-01  3.000E+00  6.750E+02  0.000E+00  0.000E+00
   1   44   78    15     2    1.5260E+05  5.5525E+02   1.5205E+05  0.000E+00  0.000E+00  0.000E+00  1.93482E+03  3.226E-01  3.000E+00  6.750E+02  0.000E+00  0.000E+00
   1   44   79    15     3    1.5205E+05 -9.3179E+01   1.5214E+05  0.000E+00  0.000E+00  0.000E+00  1.93179E+03  2.929E-01  3.000E+00  4.500E+02  0.000E+00  0.000E+00
   1   45   79    15     4    1.5214E+05 -5.2595E+02   1.5267E+05  0.000E+00  0.000E+00  0.000E+00  1.93083E+03  3.312E-01  3.000E+00  4.500E+02  0.000E+00  0.000E+00



1
  VOLUMETRIC BUDGET FOR UNSATURATED ZONE BENEATH STREAMS AT END OF TIME STEP     1 STRESS PERIOD   1
  ------------------------------------------------------------------------------------------------

    CUMULATIVE VOLUMES             L**3    RATES FOR THIS TIME STEP         L**3/T
    ------------------                     ------------------------


          STREAM LOSS =            0.0000            STREAM LOSS =            0.0000
    CHANGE IN STORAGE =            0.0000      CHANGE IN STORAGE =            0.0000
       RECHARGE TO GW =            0.0000         RECHARGE TO GW =            0.0000

             TOTAL IN =            0.0000               TOTAL IN =            0.0000

            TOTAL OUT =            0.0000              TOTAL OUT =            0.0000

             IN - OUT =            0.0000               IN - OUT =            0.0000

  PERCENT DISCREPANCY =            0.00      PERCENT DISCREPANCY =             0.00





UNSATURATED ZONE PACKAGE VOLUMETRIC BUDGET FOR  TIME STEP     1 STRESS PERIOD    1
  ------------------------------------------------------------------------------



     CUMULATIVE VOLUMES      L**3       RATES FOR THIS TIME STEP      L**3/T
     ------------------                 ------------------------

           IN:                                      IN:
           ---                                      ---
        INFILTRATION =       13868.8198          INFILTRATION =       13868.8198

          OUT:                                     OUT:
          ----                                     ----
              UZF ET =       0.0000E+00                UZF ET =       0.0000E+00
        UZF RECHARGE =       13868.8198          UZF RECHARGE =       13868.8198

            IN - OUT =       0.0000E+00              IN - OUT =       0.0000E+00

          STORAGE:                                 STORAGE:
          --------                                 --------
      STORAGE CHANGE =       0.0000E+00        STORAGE CHANGE =       0.0000E+00

 PERCENT DISCREPANCY IS DIFFERENCE BETWEEN IN-OUT MINUS CHANGE IN STORAGE
 DIVIDED BY THE AVERAGE OF IN AND OUT TIMES 100

 PERCENT DISCREPANCY =           0.00     PERCENT DISCREPANCY =           0.00






1
              HEAD IN LAYER   1 AT END OF TIME STEP   1 IN STRESS PERIOD    1
  ---------------------------------------------------------------------------

           1       2       3       4       5       6       7       8       9      10      11      12      13      14      15
          16      17      18      19      20      21      22      23      24      25      26      27      28      29      30
          31      32      33      34      35      36      37      38      39      40      41      42      43      44      45
          46      47      48      49      50      51      52      53      54      55      56      57      58      59      60
          61      62      63      64      65      66      67      68      69      70      71      72      73      74      75
          76      77      78      79      80      81
 ...........................................................................................................................
   1  -999.00 -999.00 -999.00 -999.00 -999.00 -999.00 -999.00 -999.00 -999.00 -999.00 -999.00 -999.00 -999.00 -999.00 -999.00
      -999.00 -999.00 -999.00 -999.00 -999.00 -999.00 -999.00 -999.00 -999.00 -999.00 -999.00 -999.00 -999.00 -999.00 -999.00
      -999.00 -999.00 -999.00 -999.00 -999.00 -999.00 -999.00 -999.00 -999.00 -999.00 -999.00 -999.00 -999.00 -999.00 -999.00
      -999.00 -999.00 -999.00 -999.00 -999.00 -999.00 -999.00 -999.00 -999.00 -999.00 -999.00 -999.00 -999.00 -999.00 -999.00
      -999.00 -999.00 -999.00 2166.00 2148.00 -999.00 -999.00 -999.00 -999.00 -999.00 -999.00 -999.00 -999.00 -999.00 -999.00
      -999.00 -999.00 -999.00 -999.00 -999.00 -999.00
   2  -999.00 -999.00 -999.00 -999.00 -999.00 -999.00 -999.00 -999.00 -999.00 -999.00 -999.00 -999.00 -999.00 -999.00 -999.00
      -999.00 -999.00 -999.00 -999.00 -999.00 -999.00 -999.00 -999.00 -999.00 -999.00 -999.00 -999.00 -999.00 -999.00 -999.00
      -999.00 -999.00 -999.00 -999.00 -999.00 -999.00 -999.00 -999.00 -999.00 -999.00 -999.00 -999.00 -999.00 -999.00 -999.00
      -999.00 -999.00 -999.00 -999.00 -999.00 -999.00 -999.00 -999.00 -999.00 -999.00 -999.00 -999.00 -999.00 -999.00 -999.00
      -999.00 -999.00 2170.00 2158.00 2136.00 -999.00 -999.00 -999.00 -999.00 -999.00 -999.00 -999.00 -999.00 -999.00 -999.00
      -999.00 -999.00 -999.00 -999.00 -999.00 -999.00
   3  -999.00 -999.00 -999.00 -999.00 -999.00 -999.00 -999.00 -999.00 -999.00 -999.00 -999.00 -999.00 -999.00 -999.00 -999.00
      -999.00 -999.00 -999.00 -999.00 -999.00 -999.00 -999.00 -999.00 -999.00 -999.00 -999.00 -999.00 -999.00 -999.00 -999.00
      -999.00 -999.00 -999.00 -999.00 -999.00 -999.00 -999.00 -999.00 -999.00 -999.00 -999.00 -999.00 -999.00 -999.00 -999.00
      -999.00 -999.00 -999.00 -999.00 -999.00 -999.00 -999.00 -999.00 -999.00 -999.00 -999.00 -999.00 -999.00 -999.00 -999.00
      -999.00 -999.00 2161.00 2144.00 2124.00 -999.00 -999.00 -999.00 -999.00 -999.00 -999.00 -999.00 -999.00 -999.00 -999.00
      -999.00 -999.00 -999.00 -999.00 -999.00 -999.00
   4  -999.00 -999.00 -999.00 -999.00 -999.00 -999.00 -999.00 -999.00 -999.00 -999.00 -999.00 -999.00 -999.00 -999.00 -999.00
      -999.00 -999.00 -999.00 -999.00 -999.00 -999.00 -999.00 -999.00 -999.00 -999.00 -999.00 -999.00 -999.00 -999.00 -999.00
      -999.00 -999.00 -999.00 -999.00 -999.00 -999.00 -999.00 -999.00 -999.00 -999.00 -999.00 -999.00 -999.00 -999.00 -999.00
      -999.00 -999.00 -999.00 -999.00 -999.00 -999.00 -999.00 -999.00 -999.00 -999.00 -999.00 -999.00 -999.00 -999.00 -999.00
      -999.00 2158.00 2152.00 2128.00 2121.00 -999.00 -999.00 -999.00 -999.00 -999.00 -999.00 -999.00 -999.00 -999.00 -999.00
      -999.00 -999.00 -999.00 -999.00 -999.00 -999.00
   5  -999.00 -999.00 -999.00 -999.00 -999.00 -999.00 -999.00 -999.00 -999.00 -999.00 -999.00 -999.00 -999.00 -999.00 -999.00
      -999.00 -999.00 -999.00 -999.00 -999.00 -999.00 -999.00 -999.00 -999.00 -999.00 -999.00 -999.00 -999.00 -999.00 -999.00
      -999.00 -999.00 -999.00 -999.00 -999.00 -999.00 -999.00 -999.00 -999.00 -999.00 -999.00 -999.00 -999.00 -999.00 -999.00
      -999.00 -999.00 -999.00 -999.00 -999.00 -999.00 -999.00 -999.00 -999.00 -999.00 -999.00 -999.00 -999.00 -999.00 -999.00
      -999.00 2153.00 2141.00 2122.00 2119.00 2119.00 -999.00 -999.00 -999.00 -999.00 -999.00 -999.00 -999.00 -999.00 -999.00
      -999.00 -999.00 -999.00 -999.00 -999.00 -999.00
   6  -999.00 -999.00 -999.00 -999.00 -999.00 -999.00 -999.00 -999.00 -999.00 -999.00 -999.00 -999.00 -999.00 -999.00 -999.00
      -999.00 -999.00 -999.00 -999.00 -999.00 -999.00 -999.00 -999.00 -999.00 -999.00 -999.00 -999.00 -999.00 -999.00 -999.00
      -999.00 -999.00 -999.00 -999.00 -999.00 -999.00 -999.00 -999.00 -999.00 -999.00 -999.00 -999.00 -999.00 -999.00 -999.00
      -999.00 -999.00 -999.00 -999.00 -999.00 -999.00 -999.00 -999.00 -999.00 -999.00 -999.00 -999.00 -999.00 -999.00 -999.00
      -999.00 2149.00 2134.00 2121.00 2119.00 2118.00 2116.00 -999.00 -999.00 -999.00 -999.00 -999.00 -999.00 -999.00 -999.00
      -999.00 -999.00 -999.00 -999.00 -999.00 -999.00
   7  -999.00 -999.00 -999.00 -999.00 -999.00 -999.00 -999.00 -999.00 -999.00 -999.00 -999.00 -999.00 -999.00 -999.00 -999.00
      -999.00 -999.00 -999.00 -999.00 -999.00 -999.00 -999.00 -999.00 -999.00 -999.00 -999.00 -999.00 -999.00 -999.00 -999.00
      -999.00 -999.00 -999.00 -999.00 -999.00 -999.00 -999.00 -999.00 -999.00 -999.00 -999.00 -999.00 -999.00 -999.00 -999.00
      -999.00 -999.00 -999.00 -999.00 -999.00 -999.00 -999.00 -999.00 -999.00 -999.00 -999.00 -999.00 -999.00 -999.00 -999.00
      2156.00 2151.00 2136.00 2125.00 2119.00 2115.00 2114.00 2116.00 -999.00 -999.00 -999.00 -999.00 -999.00 -999.00 -999.00
      -999.00 -999.00 -999.00 -999.00 -999.00 -999.00
   8  -999.00 -999.00 -999.00 -999.00 -999.00 -999.00 -999.00 -999.00 -999.00 -999.00 -999.00 -999.00 -999.00 -999.00 -999.00
      -999.00 -999.00 -999.00 -999.00 -999.00 -999.00 -999.00 -999.00 -999.00 -999.00 -999.00 -999.00 -999.00 -999.00 -999.00
      -999.00 -999.00 -999.00 -999.00 -999.00 -999.00 -999.00 -999.00 -999.00 -999.00 -999.00 -999.00 -999.00 -999.00 -999.00
      -999.00 -999.00 -999.00 -999.00 -999.00 -999.00 -999.00 -999.00 -999.00 -999.00 -999.00 -999.00 -999.00 -999.00 -999.00
      2160.00 2153.00 2142.00 2130.00 2117.00 2111.00 2112.00 2116.00 2120.00 2123.00 2125.00 -999.00 -999.00 -999.00 -999.00
      -999.00 -999.00 -999.00 -999.00 -999.00 -999.00
   9  -999.00 -999.00 -999.00 -999.00 -999.00 -999.00 -999.00 -999.00 -999.00 -999.00 -999.00 -999.00 -999.00 -999.00 -999.00
      -999.00 -999.00 -999.00 -999.00 -999.00 -999.00 -999.00 -999.00 -999.00 -999.00 -999.00 -999.00 -999.00 -999.00 -999.00
      -999.00 -999.00 -999.00 -999.00 -999.00 -999.00 -999.00 -999.00 -999.00 -999.00 -999.00 -999.00 -999.00 -999.00 -999.00
      -999.00 -999.00 -999.00 2185.00 2184.00 -999.00 -999.00 -999.00 -999.00 -999.00 -999.00 -999.00 -999.00 2152.00 2156.00
      2155.00 2146.00 2138.00 2128.00 2114.00 2109.00 2110.00 2114.00 2120.00 2124.00 2126.00 2122.00 2120.00 2121.00 2123.00
      -999.00 -999.00 -999.00 -999.00 -999.00 -999.00
  10  -999.00 -999.00 -999.00 -999.00 -999.00 -999.00 -999.00 -999.00 -999.00 -999.00 -999.00 -999.00 -999.00 -999.00 -999.00
      -999.00 -999.00 -999.00 -999.00 -999.00 -999.00 -999.00 -999.00 -999.00 -999.00 -999.00 -999.00 -999.00 -999.00 -999.00
      -999.00 -999.00 -999.00 -999.00 -999.00 -999.00 -999.00 -999.00 -999.00 -999.00 -999.00 -999.00 -999.00 -999.00 -999.00
      -999.00 -999.00 2188.00 2185.00 2184.00 2186.00 2181.00 2172.00 -999.00 -999.00 -999.00 2153.00 2151.00 2149.00 2149.00
      2147.00 2142.00 2133.00 2121.00 2112.00 2107.00 2108.00 2110.00 2120.00 2125.00 2126.00 2123.00 2118.00 2119.00 2121.00
      2123.00 -999.00 -999.00 -999.00 -999.00 -999.00
  11  -999.00 -999.00 -999.00 -999.00 -999.00 -999.00 -999.00 -999.00 -999.00 -999.00 -999.00 -999.00 -999.00 -999.00 -999.00
      -999.00 -999.00 -999.00 -999.00 -999.00 -999.00 -999.00 -999.00 -999.00 -999.00 -999.00 -999.00 -999.00 -999.00 -999.00
      -999.00 -999.00 -999.00 -999.00 -999.00 -999.00 -999.00 -999.00 -999.00 -999.00 -999.00 -999.00 -999.00 -999.00 -999.00
      -999.00 2194.00 2186.00 2178.00 2179.00 2176.00 2169.00 2166.00 2165.00 2163.00 2160.00 2156.00 2151.00 2147.00 2144.00
      2142.00 2138.00 2130.00 2118.00 2110.00 2106.00 2106.00 2108.00 2116.00 2123.00 2125.00 2123.00 2117.00 2112.00 2114.00
      2118.00 -999.00 -999.00 -999.00 -999.00 -999.00
  12  -999.00 -999.00 -999.00 -999.00 -999.00 -999.00 -999.00 -999.00 -999.00 -999.00 -999.00 -999.00 -999.00 -999.00 -999.00
      -999.00 -999.00 -999.00 -999.00 -999.00 -999.00 -999.00 -999.00 -999.00 -999.00 -999.00 -999.00 -999.00 -999.00 -999.00
      -999.00 -999.00 -999.00 -999.00 -999.00 -999.00 -999.00 -999.00 -999.00 -999.00 -999.00 -999.00 -999.00 -999.00 -999.00
      -999.00 2193.00 2182.00 2174.00 2167.00 2158.00 2156.00 2157.00 2161.00 2162.00 2160.00 2154.00 2148.00 2144.00 2139.00
      2136.00 2136.00 2131.00 2118.00 2110.00 2106.00 2105.00 2106.00 2112.00 2117.00 2120.00 2119.00 2115.00 2110.00 2108.00
      2112.00 2117.00 -999.00 -999.00 -999.00 -999.00
  13  -999.00 -999.00 -999.00 -999.00 -999.00 -999.00 -999.00 -999.00 -999.00 -999.00 -999.00 -999.00 -999.00 -999.00 -999.00
      -999.00 -999.00 -999.00 -999.00 -999.00 -999.00 -999.00 -999.00 -999.00 -999.00 -999.00 -999.00 -999.00 -999.00 -999.00
      -999.00 -999.00 -999.00 -999.00 -999.00 -999.00 -999.00 -999.00 -999.00 -999.00 -999.00 -999.00 -999.00 -999.00 2207.00
      2197.00 2187.00 2179.00 2171.00 2159.00 2150.00 2144.00 2145.00 2152.00 2157.00 2157.00 2151.00 2145.00 2140.00 2135.00
      2132.00 2131.00 2127.00 2119.00 2110.00 2107.00 2103.00 2102.00 2107.00 2110.00 2112.00 2114.00 2112.00 2107.00 2102.00
      2109.00 2117.00 2123.00 -999.00 -999.00 -999.00
  14  -999.00 -999.00 -999.00 -999.00 -999.00 -999.00 -999.00 -999.00 -999.00 -999.00 -999.00 -999.00 -999.00 -999.00 -999.00
      -999.00 -999.00 -999.00 -999.00 -999.00 -999.00 -999.00 -999.00 -999.00 -999.00 -999.00 -999.00 -999.00 -999.00 -999.00
      -999.00 -999.00 -999.00 -999.00 -999.00 -999.00 -999.00 -999.00 -999.00 -999.00 -999.00 2219.00 2213.00 2209.00 2200.00
      2185.00 2179.00 2172.00 2161.00 2156.00 2151.00 2147.00 2135.00 2140.00 2147.00 2149.00 2147.00 2142.00 2137.00 2132.00
      2129.00 2126.00 2122.00 2117.00 2111.00 2105.00 2100.00 2098.00 2101.00 2104.00 2107.00 2108.00 2106.00 2100.00 2099.00
      2108.00 2117.00 2124.00 2128.00 -999.00 -999.00
  15  -999.00 -999.00 -999.00 -999.00 -999.00 -999.00 -999.00 -999.00 -999.00 -999.00 -999.00 -999.00 -999.00 -999.00 -999.00
      -999.00 -999.00 -999.00 -999.00 -999.00 -999.00 -999.00 -999.00 -999.00 -999.00 -999.00 -999.00 -999.00 -999.00 -999.00
      -999.00 -999.00 -999.00 -999.00 -999.00 -999.00 -999.00 -999.00 -999.00 -999.00 2225.00 2218.00 2209.00 2206.00 2191.00
      2180.00 2174.00 2167.00 2158.00 2155.00 2151.00 2148.00 2133.00 2128.00 2132.00 2136.00 2139.00 2138.00 2134.00 2128.00
      2125.00 2121.00 2118.00 2115.00 2111.00 2105.00 2099.00 2094.00 2095.00 2097.00 2101.00 2102.00 2099.00 2095.00 2095.00
      2103.00 2113.00 2121.00 2127.00 2131.00 -999.00
  16  -999.00 -999.00 -999.00 -999.00 -999.00 -999.00 -999.00 -999.00 -999.00 -999.00 -999.00 -999.00 -999.00 -999.00 -999.00
      -999.00 -999.00 -999.00 -999.00 -999.00 -999.00 -999.00 -999.00 -999.00 -999.00 -999.00 -999.00 -999.00 -999.00 -999.00
      -999.00 -999.00 -999.00 -999.00 -999.00 -999.00 -999.00 -999.00 -999.00 2230.00 2222.00 2224.00 2226.00 2215.00 2198.00
      2188.00 2179.00 2168.00 2158.00 2154.00 2149.00 2142.00 2131.00 2122.00 2117.00 2121.00 2131.00 2131.00 2127.00 2123.00
      2120.00 2116.00 2113.00 2111.00 2109.00 2105.00 2099.00 2091.00 2091.00 2094.00 2097.00 2097.00 2092.00 2088.00 2089.00
      2097.00 2109.00 2121.00 2126.00 2128.00 -999.00
  17  -999.00 -999.00 -999.00 -999.00 -999.00 -999.00 -999.00 -999.00 -999.00 -999.00 -999.00 -999.00 -999.00 -999.00 -999.00
      -999.00 -999.00 -999.00 -999.00 -999.00 -999.00 -999.00 -999.00 -999.00 -999.00 -999.00 -999.00 -999.00 -999.00 -999.00
      -999.00 -999.00 -999.00 -999.00 -999.00 -999.00 -999.00 -999.00 -999.00 2235.00 2240.00 2241.00 2235.00 2220.00 2202.00
      2191.00 2181.00 2175.00 2164.00 2155.00 2149.00 2142.00 2135.00 2126.00 2107.00 2107.00 2121.00 2122.00 2119.00 2116.00
      2112.00 2110.00 2109.00 2107.00 2106.00 2104.00 2100.00 2090.00 2087.00 2090.00 2092.00 2091.00 2085.00 2082.00 2081.00
      2090.00 2106.00 2120.00 2123.00 2123.00 -999.00
  18  -999.00 -999.00 -999.00 -999.00 -999.00 -999.00 -999.00 -999.00 -999.00 -999.00 -999.00 -999.00 -999.00 -999.00 -999.00
      -999.00 -999.00 -999.00 -999.00 -999.00 -999.00 -999.00 -999.00 -999.00 -999.00 -999.00 -999.00 -999.00 -999.00 -999.00
      -999.00 -999.00 -999.00 -999.00 -999.00 -999.00 -999.00 -999.00 -999.00 2248.00 2242.00 2233.00 2221.00 2207.00 2193.00
      2181.00 2171.00 2165.00 2157.00 2150.00 2146.00 2140.00 2136.00 2123.00 2100.00 2094.00 2109.00 2113.00 2111.00 2108.00
      2106.00 2105.00 2105.00 2105.00 2103.00 2102.00 2099.00 2090.00 2083.00 2088.00 2089.00 2088.00 2085.00 2076.00 2075.00
      2082.00 2096.00 2110.00 2115.00 2119.00 -999.00
  19  -999.00 -999.00 -999.00 -999.00 -999.00 -999.00 -999.00 -999.00 -999.00 -999.00 -999.00 -999.00 -999.00 -999.00 -999.00
      -999.00 -999.00 -999.00 -999.00 -999.00 -999.00 -999.00 -999.00 -999.00 -999.00 -999.00 -999.00 -999.00 -999.00 -999.00
      -999.00 -999.00 -999.00 -999.00 2262.00 2252.00 2253.00 2251.00 2243.00 2234.00 2224.00 2213.00 2203.00 2191.00 2180.00
      2170.00 2162.00 2153.00 2143.00 2136.00 2130.00 2126.00 2124.00 2109.00 2087.00 2086.00 2098.00 2102.00 2101.00 2101.00
      2100.00 2099.00 2099.00 2102.00 2101.00 2100.00 2096.00 2088.00 2080.00 2085.00 2086.00 2084.00 2081.00 2072.00 2070.00
      2076.00 2085.00 2097.00 2107.00 2113.00 2115.00
  20  -999.00 -999.00 -999.00 -999.00 -999.00 -999.00 -999.00 -999.00 -999.00 -999.00 -999.00 -999.00 -999.00 -999.00 -999.00
      -999.00 -999.00 -999.00 -999.00 -999.00 -999.00 -999.00 -999.00 -999.00 -999.00 -999.00 -999.00 -999.00 -999.00 -999.00
      -999.00 -999.00 2270.00 2256.00 2240.00 2225.00 2228.00 2228.00 2222.00 2213.00 2204.00 2193.00 2182.00 2172.00 2162.00
      2155.00 2150.00 2146.00 2137.00 2124.00 2112.00 2102.00 2100.00 2090.00 2073.00 2075.00 2085.00 2093.00 2092.00 2093.00
      2094.00 2094.00 2096.00 2099.00 2100.00 2098.00 2091.00 2085.00 2075.00 2077.00 2078.00 2073.00 2068.00 2065.00 2063.00
      2066.00 2074.00 2085.00 2100.00 2108.00 2112.00
  21  -999.00 -999.00 -999.00 -999.00 -999.00 -999.00 -999.00 -999.00 -999.00 -999.00 -999.00 -999.00 -999.00 -999.00 -999.00
      -999.00 -999.00 -999.00 -999.00 -999.00 -999.00 -999.00 -999.00 -999.00 -999.00 -999.00 -999.00 -999.00 -999.00 2284.00
      2273.00 2256.00 2243.00 2231.00 2213.00 2196.00 2201.00 2202.00 2199.00 2192.00 2184.00 2174.00 2164.00 2153.00 2145.00
      2139.00 2134.00 2129.00 2124.00 2115.00 2103.00 2086.00 2075.00 2066.00 2060.00 2064.00 2074.00 2082.00 2083.00 2084.00
      2086.00 2090.00 2094.00 2097.00 2097.00 2091.00 2085.00 2078.00 2069.00 2063.00 2066.00 2062.00 2060.00 2060.00 2058.00
      2059.00 2064.00 2075.00 2093.00 2102.00 2106.00
  22  -999.00 -999.00 -999.00 -999.00 -999.00 -999.00 -999.00 -999.00 -999.00 -999.00 -999.00 -999.00 -999.00 -999.00 -999.00
      -999.00 -999.00 -999.00 -999.00 -999.00 -999.00 -999.00 -999.00 -999.00 -999.00 -999.00 2280.00 2278.00 2273.00 2264.00
      2245.00 2229.00 2218.00 2207.00 2191.00 2173.00 2179.00 2181.00 2178.00 2172.00 2164.00 2155.00 2145.00 2134.00 2124.00
      2119.00 2116.00 2113.00 2108.00 2104.00 2096.00 2081.00 2065.00 2055.00 2050.00 2055.00 2066.00 2073.00 2074.00 2077.00
      2083.00 2087.00 2091.00 2093.00 2089.00 2084.00 2079.00 2074.00 2065.00 2058.00 2056.00 2056.00 2057.00 2057.00 2057.00
      2057.00 2057.00 2068.00 2084.00 2095.00 2100.00
  23  -999.00 -999.00 -999.00 -999.00 -999.00 -999.00 -999.00 -999.00 -999.00 -999.00 -999.00 -999.00 -999.00 -999.00 -999.00
      -999.00 -999.00 -999.00 -999.00 -999.00 -999.00 -999.00 -999.00 -999.00 2319.00 2302.00 2278.00 2261.00 2248.00 2234.00
      2216.00 2204.00 2196.00 2187.00 2175.00 2164.00 2164.00 2164.00 2160.00 2153.00 2145.00 2132.00 2119.00 2110.00 2106.00
      2103.00 2101.00 2097.00 2092.00 2089.00 2088.00 2080.00 2062.00 2048.00 2042.00 2048.00 2056.00 2060.00 2064.00 2072.00
      2080.00 2086.00 2089.00 2089.00 2084.00 2078.00 2075.00 2070.00 2063.00 2055.00 2052.00 2054.00 2056.00 2058.00 2059.00
      2058.00 2057.00 2063.00 2075.00 2090.00 2096.00
  24  -999.00 -999.00 -999.00 -999.00 -999.00 -999.00 -999.00 -999.00 -999.00 -999.00 -999.00 -999.00 -999.00 -999.00 -999.00
      -999.00 -999.00 -999.00 -999.00 -999.00 -999.00 -999.00 2330.00 2316.00 2300.00 2283.00 2257.00 2236.00 2223.00 2206.00
      2193.00 2185.00 2178.00 2171.00 2163.00 2156.00 2151.00 2149.00 2143.00 2135.00 2124.00 2111.00 2101.00 2094.00 2090.00
      2087.00 2083.00 2079.00 2076.00 2077.00 2078.00 2072.00 2059.00 2044.00 2036.00 2038.00 2046.00 2049.00 2056.00 2071.00
      2077.00 2082.00 2087.00 2088.00 2080.00 2073.00 2071.00 2067.00 2062.00 2053.00 2049.00 2052.00 2058.00 2064.00 2069.00
      2069.00 2064.00 2065.00 2077.00 2096.00 2107.00
  25  -999.00 -999.00 -999.00 -999.00 -999.00 -999.00 -999.00 -999.00 -999.00 -999.00 -999.00 -999.00 -999.00 -999.00 -999.00
      -999.00 -999.00 -999.00 -999.00 -999.00 2371.00 2337.00 2311.00 2295.00 2281.00 2265.00 2240.00 2215.00 2196.00 2184.00
      2177.00 2170.00 2163.00 2157.00 2151.00 2147.00 2142.00 2133.00 2128.00 2119.00 2107.00 2096.00 2087.00 2080.00 2074.00
      2070.00 2066.00 2064.00 2064.00 2067.00 2068.00 2065.00 2054.00 2040.00 2031.00 2028.00 2033.00 2038.00 2049.00 2065.00
      2073.00 2078.00 2083.00 2086.00 2077.00 2071.00 2068.00 2066.00 2060.00 2051.00 2046.00 2051.00 2057.00 2065.00 2071.00
      2075.00 2073.00 2071.00 2080.00 2098.00 -999.00
  26  -999.00 -999.00 -999.00 -999.00 -999.00 -999.00 -999.00 -999.00 -999.00 -999.00 -999.00 -999.00 -999.00 -999.00 -999.00
      -999.00 -999.00 -999.00 2380.00 2373.00 2353.00 2323.00 2295.00 2282.00 2270.00 2250.00 2226.00 2200.00 2177.00 2168.00
      2163.00 2157.00 2151.00 2145.00 2139.00 2136.00 2133.00 2122.00 2115.00 2107.00 2096.00 2084.00 2072.00 2066.00 2062.00
      2056.00 2053.00 2051.00 2054.00 2057.00 2059.00 2059.00 2052.00 2043.00 2033.00 2023.00 2022.00 2030.00 2042.00 2058.00
      2067.00 2071.00 2077.00 2079.00 2072.00 2066.00 2065.00 2064.00 2060.00 2048.00 2046.00 2047.00 2053.00 2063.00 2071.00
      2078.00 2082.00 2076.00 2079.00 -999.00 -999.00
  27  -999.00 -999.00 -999.00 -999.00 -999.00 -999.00 -999.00 -999.00 -999.00 -999.00 -999.00 -999.00 -999.00 -999.00 -999.00
      -999.00 -999.00 2370.00 2364.00 2354.00 2341.00 2313.00 2282.00 2272.00 2259.00 2239.00 2216.00 2191.00 2166.00 2156.00
      2151.00 2146.00 2140.00 2135.00 2130.00 2125.00 2122.00 2111.00 2106.00 2100.00 2088.00 2072.00 2061.00 2055.00 2050.00
      2045.00 2041.00 2040.00 2044.00 2048.00 2050.00 2052.00 2049.00 2042.00 2032.00 2018.00 2018.00 2025.00 2037.00 2052.00
      2062.00 2067.00 2071.00 2072.00 2065.00 2060.00 2061.00 2062.00 2060.00 2051.00 2046.00 2045.00 2048.00 2060.00 2073.00
      2081.00 -999.00 -999.00 -999.00 -999.00 -999.00
  28  -999.00 -999.00 -999.00 -999.00 -999.00 -999.00 -999.00 -999.00 -999.00 -999.00 -999.00 -999.00 -999.00 -999.00 -999.00
      -999.00 2370.00 2363.00 2351.00 2342.00 2328.00 2303.00 2273.00 2260.00 2246.00 2227.00 2207.00 2187.00 2165.00 2148.00
      2141.00 2134.00 2130.00 2125.00 2120.00 2117.00 2114.00 2107.00 2100.00 2092.00 2080.00 2065.00 2053.00 2047.00 2042.00
      2037.00 2033.00 2033.00 2036.00 2039.00 2043.00 2045.00 2043.00 2039.00 2030.00 2018.00 2013.00 2020.00 2032.00 2046.00
      2055.00 2061.00 2063.00 2062.00 2059.00 2055.00 2056.00 2058.00 2058.00 2057.00 2049.00 2049.00 2044.00 2056.00 2068.00
      2082.00 -999.00 -999.00 -999.00 -999.00 -999.00
  29  -999.00 -999.00 -999.00 -999.00 -999.00 -999.00 -999.00 -999.00 -999.00 -999.00 -999.00 2467.00 2440.00 2419.00 2398.00
      2377.00 2365.00 2353.00 2342.00 2331.00 2318.00 2292.00 2266.00 2248.00 2233.00 2216.00 2201.00 2183.00 2164.00 2148.00
      2137.00 2129.00 2123.00 2117.00 2113.00 2110.00 2106.00 2101.00 2096.00 2082.00 2070.00 2058.00 2047.00 2040.00 2035.00
      2030.00 2027.00 2026.00 2028.00 2031.00 2035.00 2038.00 2037.00 2033.00 2026.00 2014.00 2008.00 2016.00 2029.00 2039.00
      2046.00 2052.00 2053.00 2053.00 2052.00 2049.00 2050.00 2052.00 2057.00 2057.00 2052.00 2050.00 2044.00 2050.00 2061.00
      2071.00 -999.00 -999.00 -999.00 -999.00 -999.00
  30  -999.00 -999.00 -999.00 -999.00 -999.00 -999.00 -999.00 -999.00 -999.00 -999.00 2510.00 2464.00 2434.00 2412.00 2391.00
      2374.00 2358.00 2344.00 2335.00 2325.00 2311.00 2285.00 2268.00 2248.00 2227.00 2209.00 2190.00 2175.00 2164.00 2152.00
      2137.00 2128.00 2119.00 2111.00 2105.00 2101.00 2096.00 2090.00 2083.00 2071.00 2060.00 2052.00 2044.00 2040.00 2038.00
      2033.00 2025.00 2022.00 2022.00 2024.00 2028.00 2031.00 2031.00 2027.00 2020.00 2008.00 2003.00 2015.00 2027.00 2031.00
      2035.00 2041.00 2043.00 2046.00 2046.00 2043.00 2044.00 2047.00 2054.00 2056.00 2055.00 2052.00 2042.00 2045.00 2052.00
      2058.00 -999.00 -999.00 -999.00 -999.00 -999.00
  31  -999.00 -999.00 -999.00 -999.00 -999.00 -999.00 -999.00 -999.00 -999.00 2544.00 2509.00 2466.00 2438.00 2412.00 2389.00
      2370.00 2355.00 2342.00 2333.00 2320.00 2306.00 2287.00 2270.00 2250.00 2230.00 2214.00 2194.00 2173.00 2162.00 2149.00
      2136.00 2126.00 2119.00 2110.00 2100.00 2094.00 2086.00 2079.00 2073.00 2063.00 2055.00 2050.00 2054.00 2051.00 2050.00
      2044.00 2033.00 2022.00 2018.00 2018.00 2020.00 2023.00 2026.00 2023.00 2014.00 2001.00 1999.00 2011.00 2021.00 2022.00
      2026.00 2031.00 2036.00 2040.00 2040.00 2036.00 2037.00 2043.00 2052.00 2056.00 2056.00 2055.00 2038.00 2040.00 2046.00
      2049.00 -999.00 -999.00 -999.00 -999.00 -999.00
  32  -999.00 -999.00 -999.00 -999.00 -999.00 -999.00 -999.00 -999.00 2555.00 2543.00 2519.00 2480.00 2451.00 2418.00 2387.00
      2368.00 2355.00 2343.00 2335.00 2325.00 2309.00 2294.00 2276.00 2253.00 2231.00 2212.00 2192.00 2179.00 2172.00 2157.00
      2141.00 2130.00 2123.00 2115.00 2104.00 2094.00 2087.00 2082.00 2077.00 2067.00 2058.00 2059.00 2072.00 2075.00 2074.00
      2062.00 2040.00 2024.00 2017.00 2013.00 2010.00 2012.00 2018.00 2016.00 2011.00 1999.00 1994.00 1999.00 2008.00 2010.00
      2017.00 2023.00 2030.00 2035.00 2034.00 2029.00 2032.00 2040.00 2049.00 2054.00 2050.00 2048.00 2034.00 2036.00 2041.00
      2044.00 -999.00 -999.00 -999.00 -999.00 -999.00
  33  -999.00 -999.00 -999.00 -999.00 -999.00 -999.00 -999.00 -999.00 2554.00 2551.00 2517.00 2481.00 2450.00 2419.00 2388.00
      2374.00 2362.00 2353.00 2346.00 2336.00 2320.00 2301.00 2274.00 2253.00 2232.00 2212.00 2199.00 2191.00 2180.00 2162.00
      2145.00 2134.00 2126.00 2116.00 2108.00 2102.00 2095.00 2088.00 2084.00 2070.00 2061.00 2067.00 2077.00 2079.00 2078.00
      2068.00 2046.00 2027.00 2019.00 2014.00 2011.00 2004.00 2005.00 2008.00 2005.00 1999.00 1991.00 1991.00 1994.00 2000.00
      2006.00 2014.00 2021.00 2025.00 2024.00 2021.00 2027.00 2037.00 2044.00 2047.00 2044.00 2042.00 2030.00 2029.00 2037.00
      2039.00 -999.00 -999.00 -999.00 -999.00 -999.00
  34  -999.00 -999.00 -999.00 -999.00 -999.00 -999.00 2558.00 2548.00 2550.00 2538.00 2508.00 2471.00 2442.00 2415.00 2396.00
      2386.00 2379.00 2373.00 2367.00 2356.00 2336.00 2307.00 2276.00 2257.00 2239.00 2221.00 2211.00 2207.00 2195.00 2172.00
      2155.00 2142.00 2130.00 2121.00 2114.00 2107.00 2099.00 2095.00 2089.00 2075.00 2066.00 2068.00 2077.00 2080.00 2074.00
      2060.00 2049.00 2033.00 2023.00 2020.00 2016.00 2004.00 1994.00 1991.00 1993.00 1991.00 1990.00 1987.00 1986.00 1988.00
      1993.00 2002.00 2008.00 2010.00 2010.00 2012.00 2022.00 2032.00 2039.00 2040.00 2036.00 2035.00 2026.00 2018.00 2029.00
      2034.00 -999.00 -999.00 -999.00 -999.00 -999.00
  35  -999.00 -999.00 -999.00 -999.00 -999.00 2574.00 2555.00 2542.00 2536.00 2524.00 2491.00 2455.00 2430.00 2409.00 2397.00
      2390.00 2382.00 2377.00 2372.00 2367.00 2348.00 2318.00 2281.00 2260.00 2246.00 2224.00 2211.00 2205.00 2197.00 2177.00
      2161.00 2147.00 2136.00 2128.00 2119.00 2111.00 2104.00 2099.00 2092.00 2077.00 2070.00 2072.00 2080.00 2079.00 2065.00
      2055.00 2045.00 2033.00 2028.00 2026.00 2015.00 2003.00 1995.00 1990.00 1986.00 1984.00 1989.00 1989.00 1981.00 1981.00
      1983.00 1988.00 1993.00 1996.00 1997.00 2004.00 2014.00 2024.00 2031.00 2032.00 2030.00 2028.00 2019.00 2011.00 2020.00
      2028.00 -999.00 -999.00 -999.00 -999.00 -999.00
  36  -999.00 -999.00 -999.00 -999.00 -999.00 2571.00 2554.00 2536.00 2526.00 2504.00 2471.00 2440.00 2417.00 2397.00 2387.00
      2379.00 2368.00 2359.00 2358.00 2359.00 2352.00 2330.00 2293.00 2268.00 2248.00 2232.00 2218.00 2197.00 2185.00 2173.00
      2161.00 2151.00 2142.00 2132.00 2121.00 2113.00 2107.00 2103.00 2094.00 2077.00 2074.00 2080.00 2085.00 2084.00 2066.00
      2055.00 2044.00 2037.00 2037.00 2033.00 2017.00 2005.00 1997.00 1992.00 1987.00 1983.00 1980.00 1979.00 1977.00 1976.00
      1976.00 1978.00 1980.00 1982.00 1989.00 1998.00 2006.00 2013.00 2018.00 2019.00 2023.00 2019.00 2007.00 2009.00 2020.00
      2026.00 -999.00 -999.00 -999.00 -999.00 -999.00
  37  -999.00 -999.00 -999.00 -999.00 -999.00 2571.00 2554.00 2534.00 2514.00 2484.00 2453.00 2423.00 2402.00 2383.00 2369.00
      2359.00 2349.00 2342.00 2339.00 2339.00 2338.00 2326.00 2298.00 2269.00 2254.00 2249.00 2235.00 2216.00 2200.00 2187.00
      2175.00 2158.00 2144.00 2133.00 2123.00 2117.00 2112.00 2104.00 2092.00 2081.00 2088.00 2093.00 2093.00 2090.00 2079.00
      2061.00 2048.00 2048.00 2051.00 2045.00 2028.00 2012.00 2000.00 1994.00 1989.00 1985.00 1982.00 1979.00 1975.00 1974.00
      1973.00 1973.00 1973.00 1976.00 1984.00 1991.00 1996.00 2000.00 2004.00 2003.00 2001.00 1997.00 1995.00 2007.00 2017.00
      2023.00 -999.00 -999.00 -999.00 -999.00 -999.00
  38  -999.00 -999.00 -999.00 -999.00 -999.00 2571.00 2554.00 2534.00 2502.00 2471.00 2438.00 2412.00 2388.00 2367.00 2359.00
      2351.00 2344.00 2337.00 2332.00 2326.00 2318.00 2308.00 2294.00 2288.00 2276.00 2259.00 2241.00 2226.00 2210.00 2197.00
      2181.00 2161.00 2146.00 2137.00 2129.00 2121.00 2114.00 2104.00 2090.00 2094.00 2105.00 2105.00 2102.00 2096.00 2087.00
      2068.00 2055.00 2058.00 2063.00 2055.00 2037.00 2016.00 2005.00 1998.00 1992.00 1987.00 1985.00 1982.00 1978.00 1974.00
      1972.00 1971.00 1970.00 1973.00 1979.00 1983.00 1986.00 1986.00 1989.00 1988.00 1984.00 1977.00 1982.00 1995.00 2011.00
      2016.00 2018.00 -999.00 -999.00 -999.00 -999.00
  39  -999.00 -999.00 -999.00 -999.00 -999.00 2573.00 2556.00 2525.00 2487.00 2455.00 2426.00 2405.00 2382.00 2364.00 2359.00
      2352.00 2346.00 2341.00 2340.00 2338.00 2332.00 2326.00 2316.00 2305.00 2285.00 2267.00 2251.00 2235.00 2215.00 2197.00
      2182.00 2163.00 2150.00 2142.00 2133.00 2125.00 2115.00 2102.00 2094.00 2108.00 2116.00 2113.00 2109.00 2103.00 2090.00
      2075.00 2066.00 2068.00 2074.00 2060.00 2040.00 2024.00 2012.00 2004.00 1998.00 1994.00 1991.00 1987.00 1983.00 1976.00
      1975.00 1973.00 1970.00 1968.00 1968.00 1972.00 1975.00 1973.00 1973.00 1972.00 1970.00 1968.00 1971.00 1982.00 1999.00
      2013.00 2015.00 -999.00 -999.00 -999.00 -999.00
  40  -999.00 -999.00 -999.00 -999.00 2577.00 2567.00 2542.00 2504.00 2475.00 2440.00 2412.00 2399.00 2388.00 2372.00 2367.00
      2361.00 2355.00 2355.00 2356.00 2357.00 2354.00 2344.00 2328.00 2311.00 2295.00 2277.00 2258.00 2235.00 2213.00 2196.00
      2182.00 2166.00 2153.00 2144.00 2136.00 2126.00 2115.00 2103.00 2103.00 2119.00 2126.00 2122.00 2117.00 2115.00 2100.00
      2082.00 2075.00 2071.00 2078.00 2075.00 2058.00 2034.00 2020.00 2013.00 2008.00 2004.00 1999.00 1999.00 1995.00 1989.00
      1986.00 1976.00 1974.00 1973.00 1971.00 1965.00 1962.00 1961.00 1960.00 1959.00 1959.00 1960.00 1963.00 1971.00 1986.00
      2003.00 2010.00 2010.00 -999.00 -999.00 -999.00
  41  -999.00 -999.00 -999.00 -999.00 2577.00 2555.00 2522.00 2486.00 2461.00 2427.00 2402.00 2394.00 2388.00 2385.00 2385.00
      2376.00 2374.00 2374.00 2372.00 2371.00 2367.00 2350.00 2328.00 2311.00 2294.00 2275.00 2255.00 2230.00 2213.00 2200.00
      2187.00 2172.00 2156.00 2144.00 2137.00 2125.00 2114.00 2105.00 2114.00 2132.00 2141.00 2133.00 2123.00 2121.00 2118.00
      2095.00 2082.00 2080.00 2089.00 2088.00 2076.00 2048.00 2033.00 2027.00 2024.00 2022.00 2017.00 2016.00 2010.00 2011.00
      2003.00 1986.00 1979.00 1981.00 1988.00 1993.00 1987.00 1971.00 1959.00 1957.00 1953.00 1953.00 1952.00 1958.00 1967.00
      1977.00 1985.00 1988.00 1995.00 -999.00 -999.00
  42  -999.00 -999.00 -999.00 2590.00 2572.00 2540.00 2506.00 2472.00 2444.00 2417.00 2401.00 2397.00 2400.00 2406.00 2407.00
      2402.00 2401.00 2392.00 2378.00 2367.00 2351.00 2336.00 2319.00 2304.00 2287.00 2270.00 2253.00 2231.00 2216.00 2206.00
      2193.00 2178.00 2161.00 2147.00 2137.00 2124.00 2113.00 2109.00 2122.00 2143.00 2152.00 2145.00 2131.00 2121.00 2119.00
      2111.00 2091.00 2093.00 2101.00 2097.00 2087.00 2069.00 2057.00 2047.00 2046.00 2042.00 2036.00 2032.00 2027.00 2020.00
      2006.00 1992.00 1986.00 1991.00 2001.00 2006.00 2005.00 2001.00 1980.00 1957.00 1951.00 1947.00 1944.00 1946.00 1951.00
      1957.00 1964.00 1966.00 1965.00 -999.00 -999.00
  43  -999.00 -999.00 -999.00 2594.00 2561.00 2522.00 2493.00 2469.00 2441.00 2420.00 2410.00 2414.00 2418.00 2425.00 2428.00
      2427.00 2421.00 2405.00 2374.00 2353.00 2338.00 2323.00 2310.00 2297.00 2281.00 2266.00 2250.00 2237.00 2225.00 2207.00
      2196.00 2181.00 2165.00 2149.00 2142.00 2136.00 2126.00 2113.00 2120.00 2139.00 2147.00 2144.00 2137.00 2124.00 2118.00
      2113.00 2099.00 2104.00 2110.00 2108.00 2102.00 2094.00 2083.00 2074.00 2068.00 2063.00 2053.00 2043.00 2032.00 2019.00
      2006.00 1995.00 1993.00 2002.00 2010.00 2013.00 2014.00 2012.00 2000.00 1968.00 1956.00 1949.00 1944.00 1941.00 1940.00
      1942.00 1945.00 1946.00 1942.00 1925.00 -999.00
  44  -999.00 -999.00 2611.00 2583.00 2556.00 2533.00 2505.00 2478.00 2453.00 2434.00 2428.00 2430.00 2434.00 2443.00 2445.00
      2443.00 2437.00 2421.00 2393.00 2367.00 2344.00 2324.00 2310.00 2297.00 2283.00 2272.00 2257.00 2241.00 2230.00 2215.00
      2199.00 2182.00 2169.00 2156.00 2149.00 2146.00 2143.00 2127.00 2118.00 2129.00 2138.00 2140.00 2139.00 2131.00 2118.00
      2108.00 2102.00 2110.00 2115.00 2120.00 2120.00 2115.00 2107.00 2100.00 2091.00 2080.00 2067.00 2053.00 2032.00 2020.00
      2011.00 2000.00 2001.00 2011.00 2018.00 2021.00 2020.00 2015.00 1998.00 1976.00 1961.00 1953.00 1947.00 1942.00 1939.00
      1936.00 1935.00 1934.00 1932.00 1915.00 -999.00
  45  -999.00 2631.00 2590.00 2556.00 2537.00 2533.00 2515.00 2491.00 2462.00 2446.00 2444.00 2443.00 2452.00 2456.00 2458.00
      2459.00 2457.00 2441.00 2414.00 2385.00 2356.00 2333.00 2315.00 2304.00 2288.00 2276.00 2261.00 2242.00 2229.00 2217.00
      2201.00 2184.00 2173.00 2163.00 2156.00 2152.00 2149.00 2138.00 2122.00 2124.00 2133.00 2140.00 2144.00 2141.00 2128.00
      2113.00 2105.00 2110.00 2119.00 2127.00 2133.00 2135.00 2134.00 2127.00 2115.00 2098.00 2077.00 2058.00 2035.00 2022.00
      2014.00 2006.00 2008.00 2015.00 2025.00 2026.00 2024.00 2014.00 1997.00 1978.00 1965.00 1955.00 1949.00 1944.00 1941.00
      1938.00 1936.00 1934.00 1932.00 1915.00 -999.00
  46  -999.00 2624.00 2572.00 2538.00 2536.00 2535.00 2523.00 2501.00 2480.00 2462.00 2452.00 2456.00 2466.00 2468.00 2470.00
      2473.00 2476.00 2463.00 2431.00 2403.00 2372.00 2347.00 2327.00 2311.00 2299.00 2286.00 2266.00 2244.00 2227.00 2215.00
      2203.00 2188.00 2175.00 2166.00 2159.00 2154.00 2149.00 2138.00 2126.00 2125.00 2133.00 2143.00 2150.00 2152.00 2142.00
      2125.00 2109.00 2111.00 2125.00 2136.00 2146.00 2153.00 2157.00 2151.00 2133.00 2113.00 2086.00 2059.00 2039.00 2027.00
      2020.00 2011.00 2012.00 2018.00 2026.00 2029.00 2025.00 2012.00 2000.00 1977.00 1965.00 1956.00 1950.00 1946.00 1943.00
      1943.00 1940.00 1938.00 -999.00 -999.00 -999.00
  47  2649.00 2623.00 2570.00 2541.00 2529.00 2521.00 2521.00 2517.00 2493.00 2473.00 2473.00 2481.00 2482.00 2481.00 2483.00
      2486.00 2489.00 2473.00 2442.00 2415.00 2387.00 2358.00 2337.00 2321.00 2309.00 2296.00 2272.00 2249.00 2229.00 2212.00
      2202.00 2189.00 2176.00 2167.00 2159.00 2152.00 2145.00 2134.00 2127.00 2128.00 2136.00 2147.00 2156.00 2161.00 2157.00
      2138.00 2117.00 2112.00 2128.00 2143.00 2158.00 2172.00 2175.00 2164.00 2147.00 2124.00 2092.00 2062.00 2043.00 2033.00
      2027.00 2018.00 2019.00 2022.00 2027.00 2029.00 2020.00 2012.00 1999.00 1982.00 1971.00 1961.00 1954.00 1950.00 1951.00
      1950.00 1948.00 1944.00 -999.00 -999.00 -999.00
  48  -999.00 2631.00 2589.00 2554.00 2537.00 2525.00 2540.00 2536.00 2505.00 2496.00 2499.00 2504.00 2500.00 2494.00 2496.00
      2500.00 2500.00 2484.00 2461.00 2429.00 2402.00 2371.00 2347.00 2330.00 2315.00 2300.00 2277.00 2254.00 2232.00 2212.00
      2198.00 2187.00 2176.00 2166.00 2158.00 2149.00 2142.00 2133.00 2129.00 2131.00 2139.00 2149.00 2159.00 2165.00 2167.00
      2152.00 2125.00 2115.00 2124.00 2144.00 2169.00 2185.00 2192.00 2177.00 2159.00 2135.00 2101.00 2072.00 2049.00 2035.00
      2029.00 2026.00 2027.00 2028.00 2032.00 2025.00 2016.00 2008.00 1998.00 1986.00 1976.00 1962.00 1957.00 1957.00 1964.00
      1960.00 1956.00 -999.00 -999.00 -999.00 -999.00
  49  -999.00 -999.00 2618.00 2588.00 2565.00 2552.00 2568.00 2560.00 2543.00 2522.00 2523.00 2525.00 2521.00 2509.00 2509.00
      2513.00 2513.00 2496.00 2475.00 2445.00 2417.00 2388.00 2358.00 2338.00 2319.00 2303.00 2282.00 2259.00 2236.00 2212.00
      2195.00 2183.00 2173.00 2164.00 2156.00 2147.00 2141.00 2134.00 2132.00 2133.00 2141.00 2150.00 2161.00 2169.00 2174.00
      2163.00 2137.00 2118.00 2120.00 2140.00 2172.00 2196.00 2207.00 2194.00 2169.00 2145.00 2112.00 2080.00 2054.00 2039.00
      2034.00 2035.00 2036.00 2034.00 2031.00 2023.00 2013.00 2005.00 1995.00 1984.00 1974.00 1966.00 1963.00 1969.00 1978.00
      1974.00 -999.00 -999.00 -999.00 -999.00 -999.00
  50  -999.00 -999.00 -999.00 2622.00 2603.00 2595.00 2591.00 2589.00 2582.00 2559.00 2553.00 2544.00 2533.00 2526.00 2523.00
      2526.00 2523.00 2506.00 2483.00 2453.00 2426.00 2401.00 2370.00 2347.00 2325.00 2309.00 2287.00 2261.00 2236.00 2210.00
      2197.00 2182.00 2170.00 2161.00 2153.00 2146.00 2141.00 2136.00 2135.00 2142.00 2152.00 2161.00 2169.00 2178.00 2181.00
      2175.00 2150.00 2126.00 2121.00 2136.00 2170.00 2199.00 2214.00 2205.00 2181.00 2152.00 2120.00 2089.00 2066.00 2049.00
      2042.00 2044.00 2044.00 2040.00 2030.00 2022.00 2013.00 2005.00 1995.00 1984.00 1976.00 1972.00 1969.00 1974.00 1986.00
      1991.00 -999.00 -999.00 -999.00 -999.00 -999.00
  51  -999.00 -999.00 -999.00 -999.00 -999.00 -999.00 -999.00 -999.00 2610.00 2594.00 2574.00 2557.00 2540.00 -999.00 -999.00
      2538.00 2535.00 2516.00 2487.00 2456.00 2431.00 2408.00 2380.00 2354.00 2331.00 2313.00 2291.00 2264.00 2238.00 2214.00
      2196.00 2182.00 2169.00 2159.00 2153.00 2147.00 2142.00 2138.00 2144.00 2155.00 2165.00 2175.00 2188.00 2197.00 2199.00
      2192.00 2166.00 2138.00 2127.00 2135.00 2168.00 2199.00 2220.00 2215.00 2192.00 2160.00 2127.00 2099.00 2077.00 2060.00
      2050.00 2052.00 2054.00 2048.00 2033.00 2023.00 2015.00 2007.00 1997.00 1989.00 1982.00 1977.00 1976.00 1980.00 1990.00
      1998.00 -999.00 -999.00 -999.00 -999.00 -999.00
  52  -999.00 -999.00 -999.00 -999.00 -999.00 -999.00 -999.00 -999.00 -999.00 -999.00 -999.00 -999.00 -999.00 -999.00 -999.00
      -999.00 2537.00 2518.00 2488.00 2460.00 2433.00 2410.00 2387.00 2360.00 2339.00 2318.00 2293.00 2266.00 2240.00 2216.00
      2197.00 2181.00 2168.00 2158.00 2154.00 2149.00 2144.00 2144.00 2153.00 2166.00 2180.00 2194.00 2209.00 2220.00 2224.00
      2211.00 2179.00 2154.00 2143.00 2143.00 2169.00 2200.00 2221.00 2221.00 2198.00 2166.00 2134.00 2108.00 2085.00 2073.00
      2059.00 2060.00 2065.00 2061.00 2043.00 2028.00 2019.00 2011.00 2002.00 1994.00 1989.00 1984.00 1985.00 1989.00 1997.00
      2007.00 -999.00 -999.00 -999.00 -999.00 -999.00
  53  -999.00 -999.00 -999.00 -999.00 -999.00 -999.00 -999.00 -999.00 -999.00 -999.00 -999.00 -999.00 -999.00 -999.00 -999.00
      -999.00 -999.00 2514.00 2486.00 2459.00 2432.00 2409.00 2391.00 2374.00 2350.00 2320.00 2293.00 2267.00 2241.00 2217.00
      2199.00 2182.00 2170.00 2159.00 2154.00 2149.00 2148.00 2150.00 2161.00 2174.00 2193.00 2213.00 2230.00 2241.00 2245.00
      2225.00 2192.00 2168.00 2157.00 2154.00 2171.00 2202.00 2222.00 2225.00 2198.00 2167.00 2138.00 2113.00 2093.00 2081.00
      2070.00 2070.00 2074.00 2072.00 2056.00 2034.00 2022.00 2015.00 2007.00 2001.00 1995.00 1992.00 1995.00 2000.00 2006.00
      2013.00 -999.00 -999.00 -999.00 -999.00 -999.00
  54  -999.00 -999.00 -999.00 -999.00 -999.00 -999.00 -999.00 -999.00 -999.00 -999.00 -999.00 -999.00 -999.00 -999.00 -999.00
      -999.00 -999.00 -999.00 2483.00 2457.00 2429.00 2406.00 2391.00 2381.00 2350.00 2321.00 2293.00 2269.00 2242.00 2218.00
      2200.00 2182.00 2170.00 2161.00 2155.00 2151.00 2150.00 2155.00 2163.00 2177.00 2196.00 2219.00 2238.00 2253.00 2258.00
      2232.00 2201.00 2181.00 2169.00 2162.00 2177.00 2204.00 2224.00 2228.00 2200.00 2167.00 2143.00 2118.00 2099.00 2089.00
      2081.00 2080.00 2079.00 2077.00 2066.00 2042.00 2028.00 2021.00 2016.00 2013.00 2001.00 1998.00 2004.00 2010.00 2013.00
      2019.00 -999.00 -999.00 -999.00 -999.00 -999.00
  55  -999.00 -999.00 -999.00 -999.00 -999.00 -999.00 -999.00 -999.00 -999.00 -999.00 -999.00 -999.00 -999.00 -999.00 -999.00
      -999.00 -999.00 -999.00 2481.00 2452.00 2422.00 2402.00 2388.00 2371.00 2344.00 2321.00 2294.00 2268.00 2242.00 2220.00
      2202.00 2185.00 2172.00 2162.00 2155.00 2152.00 2153.00 2158.00 2165.00 2178.00 2196.00 2216.00 2236.00 2254.00 2263.00
      2244.00 2213.00 2194.00 2181.00 2173.00 2182.00 2207.00 2229.00 2233.00 2200.00 2172.00 2152.00 2129.00 2107.00 2099.00
      2094.00 2089.00 2085.00 2080.00 2066.00 2048.00 2036.00 2030.00 2029.00 2025.00 2011.00 2004.00 2013.00 2018.00 2022.00
      2027.00 -999.00 -999.00 -999.00 -999.00 -999.00
  56  -999.00 -999.00 -999.00 -999.00 -999.00 -999.00 -999.00 -999.00 -999.00 -999.00 -999.00 -999.00 -999.00 -999.00 -999.00
      -999.00 -999.00 -999.00 -999.00 -999.00 -999.00 2397.00 2384.00 2366.00 2341.00 2319.00 2293.00 2265.00 2242.00 2221.00
      2204.00 2184.00 2173.00 2163.00 2156.00 2154.00 2155.00 2160.00 2168.00 2181.00 2199.00 2218.00 2237.00 2256.00 2269.00
      2264.00 2230.00 2208.00 2194.00 2185.00 2191.00 2212.00 2236.00 2236.00 2202.00 2180.00 2161.00 2139.00 2118.00 2110.00
      2105.00 2098.00 2091.00 2087.00 2071.00 2053.00 2044.00 2042.00 2041.00 2036.00 2022.00 2011.00 2023.00 2031.00 2034.00
      2040.00 -999.00 -999.00 -999.00 -999.00 -999.00
  57  -999.00 -999.00 -999.00 -999.00 -999.00 -999.00 -999.00 -999.00 -999.00 -999.00 -999.00 -999.00 -999.00 -999.00 -999.00
      -999.00 -999.00 -999.00 -999.00 -999.00 -999.00 -999.00 2379.00 2363.00 2340.00 2317.00 2294.00 2264.00 2242.00 2220.00
      2203.00 2185.00 2174.00 2165.00 2158.00 2156.00 2156.00 2162.00 2170.00 2185.00 2203.00 2222.00 2243.00 2263.00 2277.00
      2276.00 2249.00 2224.00 2209.00 2200.00 2202.00 2220.00 2244.00 2242.00 2209.00 2188.00 2169.00 2149.00 2129.00 2121.00
      2116.00 2109.00 2098.00 2091.00 2078.00 2064.00 2052.00 2055.00 2054.00 2051.00 2036.00 2023.00 2034.00 2049.00 2051.00
      2057.00 -999.00 -999.00 -999.00 -999.00 -999.00
  58  -999.00 -999.00 -999.00 -999.00 -999.00 -999.00 -999.00 -999.00 -999.00 -999.00 -999.00 -999.00 -999.00 -999.00 -999.00
      -999.00 -999.00 -999.00 -999.00 -999.00 -999.00 -999.00 -999.00 2360.00 2342.00 2317.00 2297.00 2264.00 2242.00 2222.00
      2207.00 2188.00 2175.00 2167.00 2161.00 2158.00 2158.00 2164.00 2173.00 2188.00 2207.00 2227.00 2249.00 2272.00 2290.00
      2286.00 2265.00 2239.00 2225.00 2216.00 2213.00 2228.00 2254.00 2248.00 2219.00 2199.00 2179.00 2160.00 2142.00 2136.00
      2131.00 2121.00 2106.00 2094.00 2083.00 2071.00 2064.00 2066.00 2068.00 2067.00 2052.00 2036.00 2043.00 2055.00 2061.00
      2064.00 -999.00 -999.00 -999.00 -999.00 -999.00
  59  -999.00 -999.00 -999.00 -999.00 -999.00 -999.00 -999.00 -999.00 -999.00 -999.00 -999.00 -999.00 -999.00 -999.00 -999.00
      -999.00 -999.00 -999.00 -999.00 -999.00 -999.00 -999.00 -999.00 -999.00 -999.00 -999.00 -999.00 -999.00 -999.00 2220.00
      2208.00 2191.00 2175.00 2167.00 2162.00 2159.00 2161.00 2167.00 2176.00 2191.00 2210.00 2231.00 2252.00 2277.00 2300.00
      2300.00 2277.00 2252.00 2236.00 2228.00 2226.00 2237.00 2260.00 2253.00 2230.00 2214.00 2194.00 2174.00 2157.00 2151.00
      2146.00 2135.00 2117.00 2101.00 2091.00 2080.00 2074.00 2079.00 2083.00 2083.00 2063.00 2047.00 2054.00 2061.00 2067.00
      2069.00 -999.00 -999.00 -999.00 -999.00 -999.00
  60  -999.00 -999.00 -999.00 -999.00 -999.00 -999.00 -999.00 -999.00 -999.00 -999.00 -999.00 -999.00 -999.00 -999.00 -999.00
      -999.00 -999.00 -999.00 -999.00 -999.00 -999.00 -999.00 -999.00 -999.00 -999.00 -999.00 -999.00 -999.00 -999.00 -999.00
      -999.00 2193.00 2179.00 2168.00 2164.00 2162.00 2164.00 2169.00 2179.00 2193.00 2212.00 2233.00 2254.00 2279.00 2307.00
      2312.00 2295.00 2266.00 2245.00 2238.00 2235.00 2243.00 2261.00 2258.00 2243.00 2226.00 2207.00 2189.00 2174.00 2168.00
      2160.00 2148.00 2128.00 2112.00 2100.00 2091.00 2086.00 2089.00 2092.00 2092.00 2066.00 2059.00 2065.00 2073.00 2074.00
      2075.00 -999.00 -999.00 -999.00 -999.00 -999.00
  61  -999.00 -999.00 -999.00 -999.00 -999.00 -999.00 -999.00 -999.00 -999.00 -999.00 -999.00 -999.00 -999.00 -999.00 -999.00
      -999.00 -999.00 -999.00 -999.00 -999.00 -999.00 -999.00 -999.00 -999.00 -999.00 -999.00 -999.00 -999.00 -999.00 -999.00
      -999.00 -999.00 2181.00 2170.00 2166.00 2164.00 2165.00 2170.00 2180.00 2193.00 2213.00 2235.00 2256.00 2279.00 2307.00
      2320.00 2309.00 2278.00 2258.00 2248.00 2245.00 2248.00 2263.00 2268.00 2256.00 2239.00 2220.00 2204.00 2193.00 2190.00
      2180.00 2159.00 2139.00 2123.00 2113.00 2101.00 2098.00 2099.00 2095.00 2088.00 2073.00 2073.00 2075.00 2078.00 2079.00
      2080.00 -999.00 -999.00 -999.00 -999.00 -999.00
  62  -999.00 -999.00 -999.00 -999.00 -999.00 -999.00 -999.00 -999.00 -999.00 -999.00 -999.00 -999.00 -999.00 -999.00 -999.00
      -999.00 -999.00 -999.00 -999.00 -999.00 -999.00 -999.00 -999.00 -999.00 -999.00 -999.00 -999.00 -999.00 -999.00 -999.00
      -999.00 -999.00 -999.00 2174.00 2169.00 -999.00 -999.00 -999.00 -999.00 -999.00 -999.00 -999.00 -999.00 -999.00 -999.00
      -999.00 2321.00 2297.00 2272.00 2260.00 2254.00 2255.00 2269.00 2276.00 2270.00 2254.00 2235.00 2217.00 2209.00 2210.00
      2198.00 2175.00 2151.00 2135.00 2126.00 2115.00 2112.00 2105.00 2095.00 2085.00 2081.00 2084.00 2083.00 2083.00 2084.00
      2085.00 -999.00 -999.00 -999.00 -999.00 -999.00
  63  -999.00 -999.00 -999.00 -999.00 -999.00 -999.00 -999.00 -999.00 -999.00 -999.00 -999.00 -999.00 -999.00 -999.00 -999.00
      -999.00 -999.00 -999.00 -999.00 -999.00 -999.00 -999.00 -999.00 -999.00 -999.00 -999.00 -999.00 -999.00 -999.00 -999.00
      -999.00 -999.00 -999.00 -999.00 -999.00 -999.00 -999.00 -999.00 -999.00 -999.00 -999.00 -999.00 -999.00 -999.00 -999.00
      -999.00 2330.00 2315.00 2292.00 2278.00 2267.00 2264.00 2275.00 2285.00 2285.00 2271.00 2254.00 2237.00 2227.00 2226.00
      2212.00 2187.00 2166.00 2149.00 2136.00 2127.00 2121.00 2106.00 2095.00 2089.00 2091.00 2091.00 2089.00 2091.00 2094.00
      2097.00 -999.00 -999.00 -999.00 -999.00 -999.00
  64  -999.00 -999.00 -999.00 -999.00 -999.00 -999.00 -999.00 -999.00 -999.00 -999.00 -999.00 -999.00 -999.00 -999.00 -999.00
      -999.00 -999.00 -999.00 -999.00 -999.00 -999.00 -999.00 -999.00 -999.00 -999.00 -999.00 -999.00 -999.00 -999.00 -999.00
      -999.00 -999.00 -999.00 -999.00 -999.00 -999.00 -999.00 -999.00 -999.00 -999.00 -999.00 -999.00 -999.00 -999.00 -999.00
      -999.00 -999.00 2326.00 2314.00 2306.00 2286.00 2274.00 2280.00 2293.00 2300.00 2291.00 2277.00 2263.00 2249.00 2242.00
      2227.00 2204.00 2181.00 2162.00 2148.00 2131.00 2118.00 2106.00 2099.00 2097.00 2099.00 2097.00 2097.00 2101.00 2106.00
      2110.00 -999.00 -999.00 -999.00 -999.00 -999.00
  65  -999.00 -999.00 -999.00 -999.00 -999.00 -999.00 -999.00 -999.00 -999.00 -999.00 -999.00 -999.00 -999.00 -999.00 -999.00
      -999.00 -999.00 -999.00 -999.00 -999.00 -999.00 -999.00 -999.00 -999.00 -999.00 -999.00 -999.00 -999.00 -999.00 -999.00
      -999.00 -999.00 -999.00 -999.00 -999.00 -999.00 -999.00 -999.00 -999.00 -999.00 -999.00 -999.00 -999.00 -999.00 -999.00
      -999.00 -999.00 -999.00 2325.00 2321.00 2301.00 2283.00 2284.00 2296.00 2308.00 2309.00 2297.00 2284.00 2272.00 2261.00
      2244.00 2220.00 2192.00 2170.00 2153.00 2132.00 2118.00 2109.00 2105.00 2105.00 2105.00 2105.00 2108.00 2113.00 2116.00
      2117.00 -999.00 -999.00 -999.00 -999.00 -999.00
  66  -999.00 -999.00 -999.00 -999.00 -999.00 -999.00 -999.00 -999.00 -999.00 -999.00 -999.00 -999.00 -999.00 -999.00 -999.00
      -999.00 -999.00 -999.00 -999.00 -999.00 -999.00 -999.00 -999.00 -999.00 -999.00 -999.00 -999.00 -999.00 -999.00 -999.00
      -999.00 -999.00 -999.00 -999.00 -999.00 -999.00 -999.00 -999.00 -999.00 -999.00 -999.00 -999.00 -999.00 -999.00 -999.00
      -999.00 -999.00 -999.00 -999.00 2331.00 2312.00 2296.00 2292.00 2302.00 2317.00 2323.00 2314.00 2301.00 2287.00 2272.00
      2255.00 2229.00 2200.00 2172.00 2154.00 2135.00 2121.00 2113.00 2112.00 2112.00 2111.00 2113.00 2117.00 2121.00 2123.00
      2124.00 -999.00 -999.00 -999.00 -999.00 -999.00
  67  -999.00 -999.00 -999.00 -999.00 -999.00 -999.00 -999.00 -999.00 -999.00 -999.00 -999.00 -999.00 -999.00 -999.00 -999.00
      -999.00 -999.00 -999.00 -999.00 -999.00 -999.00 -999.00 -999.00 -999.00 -999.00 -999.00 -999.00 -999.00 -999.00 -999.00
      -999.00 -999.00 -999.00 -999.00 -999.00 -999.00 -999.00 -999.00 -999.00 -999.00 -999.00 -999.00 -999.00 -999.00 -999.00
      -999.00 -999.00 -999.00 -999.00 2333.00 2319.00 2305.00 2298.00 2307.00 2325.00 2335.00 2326.00 2314.00 2297.00 2277.00
      2257.00 2232.00 2202.00 2170.00 2153.00 2135.00 2124.00 2119.00 2118.00 2118.00 2118.00 2120.00 2124.00 2129.00 2131.00
      2132.00 -999.00 -999.00 -999.00 -999.00 -999.00
  68  -999.00 -999.00 -999.00 -999.00 -999.00 -999.00 -999.00 -999.00 -999.00 -999.00 -999.00 -999.00 -999.00 -999.00 -999.00
      -999.00 -999.00 -999.00 -999.00 -999.00 -999.00 -999.00 -999.00 -999.00 -999.00 -999.00 -999.00 -999.00 -999.00 -999.00
      -999.00 -999.00 -999.00 -999.00 -999.00 -999.00 -999.00 -999.00 -999.00 -999.00 -999.00 -999.00 -999.00 -999.00 -999.00
      -999.00 -999.00 -999.00 -999.00 -999.00 2322.00 2307.00 2301.00 2307.00 2323.00 2343.00 2336.00 2321.00 2299.00 2277.00
      2257.00 2230.00 2201.00 2170.00 2154.00 2138.00 2132.00 2126.00 2125.00 2124.00 2122.00 2126.00 2131.00 2136.00 2140.00
      2141.00 -999.00 -999.00 -999.00 -999.00 -999.00
  69  -999.00 -999.00 -999.00 -999.00 -999.00 -999.00 -999.00 -999.00 -999.00 -999.00 -999.00 -999.00 -999.00 -999.00 -999.00
      -999.00 -999.00 -999.00 -999.00 -999.00 -999.00 -999.00 -999.00 -999.00 -999.00 -999.00 -999.00 -999.00 -999.00 -999.00
      -999.00 -999.00 -999.00 -999.00 -999.00 -999.00 -999.00 -999.00 -999.00 -999.00 -999.00 -999.00 -999.00 -999.00 -999.00
      -999.00 -999.00 -999.00 -999.00 -999.00 -999.00 -999.00 -999.00 -999.00 -999.00 -999.00 2341.00 2323.00 2301.00 2279.00
      2257.00 2228.00 2199.00 2172.00 2157.00 2148.00 2143.00 2136.00 2134.00 2131.00 2128.00 2131.00 2136.00 2142.00 2148.00
      2149.00 -999.00 -999.00 -999.00 -999.00 -999.00
  70  -999.00 -999.00 -999.00 -999.00 -999.00 -999.00 -999.00 -999.00 -999.00 -999.00 -999.00 -999.00 -999.00 -999.00 -999.00
      -999.00 -999.00 -999.00 -999.00 -999.00 -999.00 -999.00 -999.00 -999.00 -999.00 -999.00 -999.00 -999.00 -999.00 -999.00
      -999.00 -999.00 -999.00 -999.00 -999.00 -999.00 -999.00 -999.00 -999.00 -999.00 -999.00 -999.00 -999.00 -999.00 -999.00
      -999.00 -999.00 -999.00 -999.00 -999.00 -999.00 -999.00 -999.00 -999.00 -999.00 -999.00 2347.00 2328.00 2305.00 2282.00
      2256.00 2227.00 2201.00 2178.00 2164.00 2156.00 2147.00 2141.00 2136.00 2132.00 2131.00 2134.00 2139.00 2145.00 2151.00
      -999.00 -999.00 -999.00 -999.00 -999.00 -999.00
  71  -999.00 -999.00 -999.00 -999.00 -999.00 -999.00 -999.00 -999.00 -999.00 -999.00 -999.00 -999.00 -999.00 -999.00 -999.00
      -999.00 -999.00 -999.00 -999.00 -999.00 -999.00 -999.00 -999.00 -999.00 -999.00 -999.00 -999.00 -999.00 -999.00 -999.00
      -999.00 -999.00 -999.00 -999.00 -999.00 -999.00 -999.00 -999.00 -999.00 -999.00 -999.00 -999.00 -999.00 -999.00 -999.00
      -999.00 -999.00 -999.00 -999.00 -999.00 -999.00 -999.00 -999.00 -999.00 -999.00 -999.00 -999.00 2338.00 2314.00 2287.00
      2260.00 2234.00 2208.00 2180.00 -999.00 -999.00 -999.00 -999.00 -999.00 -999.00 -999.00 -999.00 -999.00 -999.00 2155.00
      -999.00 -999.00 -999.00 -999.00 -999.00 -999.00
  72  -999.00 -999.00 -999.00 -999.00 -999.00 -999.00 -999.00 -999.00 -999.00 -999.00 -999.00 -999.00 -999.00 -999.00 -999.00
      -999.00 -999.00 -999.00 -999.00 -999.00 -999.00 -999.00 -999.00 -999.00 -999.00 -999.00 -999.00 -999.00 -999.00 -999.00
      -999.00 -999.00 -999.00 -999.00 -999.00 -999.00 -999.00 -999.00 -999.00 -999.00 -999.00 -999.00 -999.00 -999.00 -999.00
      -999.00 -999.00 -999.00 -999.00 -999.00 -999.00 -999.00 -999.00 -999.00 -999.00 -999.00 -999.00 -999.00 2323.00 2295.00
      2267.00 2240.00 -999.00 -999.00 -999.00 -999.00 -999.00 -999.00 -999.00 -999.00 -999.00 -999.00 -999.00 -999.00 -999.00
      -999.00 -999.00 -999.00 -999.00 -999.00 -999.00
  73  -999.00 -999.00 -999.00 -999.00 -999.00 -999.00 -999.00 -999.00 -999.00 -999.00 -999.00 -999.00 -999.00 -999.00 -999.00
      -999.00 -999.00 -999.00 -999.00 -999.00 -999.00 -999.00 -999.00 -999.00 -999.00 -999.00 -999.00 -999.00 -999.00 -999.00
      -999.00 -999.00 -999.00 -999.00 -999.00 -999.00 -999.00 -999.00 -999.00 -999.00 -999.00 -999.00 -999.00 -999.00 -999.00
      -999.00 -999.00 -999.00 -999.00 -999.00 -999.00 -999.00 -999.00 -999.00 -999.00 -999.00 -999.00 -999.00 2329.00 2305.00
      2274.00 -999.00 -999.00 -999.00 -999.00 -999.00 -999.00 -999.00 -999.00 -999.00 -999.00 -999.00 -999.00 -999.00 -999.00
      -999.00 -999.00 -999.00 -999.00 -999.00 -999.00
1
              HEAD IN LAYER   2 AT END OF TIME STEP   1 IN STRESS PERIOD    1
  ---------------------------------------------------------------------------

           1       2       3       4       5       6       7       8       9      10      11      12      13      14      15
          16      17      18      19      20      21      22      23      24      25      26      27      28      29      30
          31      32      33      34      35      36      37      38      39      40      41      42      43      44      45
          46      47      48      49      50      51      52      53      54      55      56      57      58      59      60
          61      62      63      64      65      66      67      68      69      70      71      72      73      74      75
          76      77      78      79      80      81
 ...........................................................................................................................
   1  -999.00 -999.00 -999.00 -999.00 -999.00 -999.00 -999.00 -999.00 -999.00 -999.00 -999.00 -999.00 -999.00 -999.00 -999.00
      -999.00 -999.00 -999.00 -999.00 -999.00 -999.00 -999.00 -999.00 -999.00 -999.00 -999.00 -999.00 -999.00 -999.00 -999.00
      -999.00 -999.00 -999.00 -999.00 -999.00 -999.00 -999.00 -999.00 -999.00 -999.00 -999.00 -999.00 -999.00 -999.00 -999.00
      -999.00 -999.00 -999.00 -999.00 -999.00 -999.00 -999.00 -999.00 -999.00 -999.00 -999.00 -999.00 -999.00 -999.00 -999.00
      -999.00 -999.00 -999.00 2113.00 2112.00 -999.00 -999.00 -999.00 -999.00 -999.00 -999.00 -999.00 -999.00 -999.00 -999.00
      -999.00 -999.00 -999.00 -999.00 -999.00 -999.00
   2  -999.00 -999.00 -999.00 -999.00 -999.00 -999.00 -999.00 -999.00 -999.00 -999.00 -999.00 -999.00 -999.00 -999.00 -999.00
      -999.00 -999.00 -999.00 -999.00 -999.00 -999.00 -999.00 -999.00 -999.00 -999.00 -999.00 -999.00 -999.00 -999.00 -999.00
      -999.00 -999.00 -999.00 -999.00 -999.00 -999.00 -999.00 -999.00 -999.00 -999.00 -999.00 -999.00 -999.00 -999.00 -999.00
      -999.00 -999.00 -999.00 -999.00 -999.00 -999.00 -999.00 -999.00 -999.00 -999.00 -999.00 -999.00 -999.00 -999.00 -999.00
      -999.00 -999.00 2112.00 2112.00 2111.00 -999.00 -999.00 -999.00 -999.00 -999.00 -999.00 -999.00 -999.00 -999.00 -999.00
      -999.00 -999.00 -999.00 -999.00 -999.00 -999.00
   3  -999.00 -999.00 -999.00 -999.00 -999.00 -999.00 -999.00 -999.00 -999.00 -999.00 -999.00 -999.00 -999.00 -999.00 -999.00
      -999.00 -999.00 -999.00 -999.00 -999.00 -999.00 -999.00 -999.00 -999.00 -999.00 -999.00 -999.00 -999.00 -999.00 -999.00
      -999.00 -999.00 -999.00 -999.00 -999.00 -999.00 -999.00 -999.00 -999.00 -999.00 -999.00 -999.00 -999.00 -999.00 -999.00
      -999.00 -999.00 -999.00 -999.00 -999.00 -999.00 -999.00 -999.00 -999.00 -999.00 -999.00 -999.00 -999.00 -999.00 -999.00
      -999.00 -999.00 2112.00 2111.00 2110.00 -999.00 -999.00 -999.00 -999.00 -999.00 -999.00 -999.00 -999.00 -999.00 -999.00
      -999.00 -999.00 -999.00 -999.00 -999.00 -999.00
   4  -999.00 -999.00 -999.00 -999.00 -999.00 -999.00 -999.00 -999.00 -999.00 -999.00 -999.00 -999.00 -999.00 -999.00 -999.00
      -999.00 -999.00 -999.00 -999.00 -999.00 -999.00 -999.00 -999.00 -999.00 -999.00 -999.00 -999.00 -999.00 -999.00 -999.00
      -999.00 -999.00 -999.00 -999.00 -999.00 -999.00 -999.00 -999.00 -999.00 -999.00 -999.00 -999.00 -999.00 -999.00 -999.00
      -999.00 -999.00 -999.00 -999.00 -999.00 -999.00 -999.00 -999.00 -999.00 -999.00 -999.00 -999.00 -999.00 -999.00 -999.00
      -999.00 2111.00 2111.00 2110.00 2109.00 -999.00 -999.00 -999.00 -999.00 -999.00 -999.00 -999.00 -999.00 -999.00 -999.00
      -999.00 -999.00 -999.00 -999.00 -999.00 -999.00
   5  -999.00 -999.00 -999.00 -999.00 -999.00 -999.00 -999.00 -999.00 -999.00 -999.00 -999.00 -999.00 -999.00 -999.00 -999.00
      -999.00 -999.00 -999.00 -999.00 -999.00 -999.00 -999.00 -999.00 -999.00 -999.00 -999.00 -999.00 -999.00 -999.00 -999.00
      -999.00 -999.00 -999.00 -999.00 -999.00 -999.00 -999.00 -999.00 -999.00 -999.00 -999.00 -999.00 -999.00 -999.00 -999.00
      -999.00 -999.00 -999.00 -999.00 -999.00 -999.00 -999.00 -999.00 -999.00 -999.00 -999.00 -999.00 -999.00 -999.00 -999.00
      -999.00 2115.00 2110.00 2109.00 2108.00 2107.00 -999.00 -999.00 -999.00 -999.00 -999.00 -999.00 -999.00 -999.00 -999.00
      -999.00 -999.00 -999.00 -999.00 -999.00 -999.00
   6  -999.00 -999.00 -999.00 -999.00 -999.00 -999.00 -999.00 -999.00 -999.00 -999.00 -999.00 -999.00 -999.00 -999.00 -999.00
      -999.00 -999.00 -999.00 -999.00 -999.00 -999.00 -999.00 -999.00 -999.00 -999.00 -999.00 -999.00 -999.00 -999.00 -999.00
      -999.00 -999.00 -999.00 -999.00 -999.00 -999.00 -999.00 -999.00 -999.00 -999.00 -999.00 -999.00 -999.00 -999.00 -999.00
      -999.00 -999.00 -999.00 -999.00 -999.00 -999.00 -999.00 -999.00 -999.00 -999.00 -999.00 -999.00 -999.00 -999.00 -999.00
      -999.00 2110.00 2109.00 2107.00 2106.00 2105.00 2105.00 -999.00 -999.00 -999.00 -999.00 -999.00 -999.00 -999.00 -999.00
      -999.00 -999.00 -999.00 -999.00 -999.00 -999.00
   7  -999.00 -999.00 -999.00 -999.00 -999.00 -999.00 -999.00 -999.00 -999.00 -999.00 -999.00 -999.00 -999.00 -999.00 -999.00
      -999.00 -999.00 -999.00 -999.00 -999.00 -999.00 -999.00 -999.00 -999.00 -999.00 -999.00 -999.00 -999.00 -999.00 -999.00
      -999.00 -999.00 -999.00 -999.00 -999.00 -999.00 -999.00 -999.00 -999.00 -999.00 -999.00 -999.00 -999.00 -999.00 -999.00
      -999.00 -999.00 -999.00 -999.00 -999.00 -999.00 -999.00 -999.00 -999.00 -999.00 -999.00 -999.00 -999.00 -999.00 -999.00
      2109.00 2116.00 2108.00 2106.00 2105.00 2104.00 2104.00 2103.00 -999.00 -999.00 -999.00 -999.00 -999.00 -999.00 -999.00
      -999.00 -999.00 -999.00 -999.00 -999.00 -999.00
   8  -999.00 -999.00 -999.00 -999.00 -999.00 -999.00 -999.00 -999.00 -999.00 -999.00 -999.00 -999.00 -999.00 -999.00 -999.00
      -999.00 -999.00 -999.00 -999.00 -999.00 -999.00 -999.00 -999.00 -999.00 -999.00 -999.00 -999.00 -999.00 -999.00 -999.00
      -999.00 -999.00 -999.00 -999.00 -999.00 -999.00 -999.00 -999.00 -999.00 -999.00 -999.00 -999.00 -999.00 -999.00 -999.00
      -999.00 -999.00 -999.00 -999.00 -999.00 -999.00 -999.00 -999.00 -999.00 -999.00 -999.00 -999.00 -999.00 -999.00 -999.00
      2109.00 2118.00 2107.00 2105.00 2103.00 2103.00 2103.00 2102.00 2101.00 2099.00 2099.00 -999.00 -999.00 -999.00 -999.00
      -999.00 -999.00 -999.00 -999.00 -999.00 -999.00
   9  -999.00 -999.00 -999.00 -999.00 -999.00 -999.00 -999.00 -999.00 -999.00 -999.00 -999.00 -999.00 -999.00 -999.00 -999.00
      -999.00 -999.00 -999.00 -999.00 -999.00 -999.00 -999.00 -999.00 -999.00 -999.00 -999.00 -999.00 -999.00 -999.00 -999.00
      -999.00 -999.00 -999.00 -999.00 -999.00 -999.00 -999.00 -999.00 -999.00 -999.00 -999.00 -999.00 -999.00 -999.00 -999.00
      -999.00 -999.00 -999.00 2155.00 2154.00 -999.00 -999.00 -999.00 -999.00 -999.00 -999.00 -999.00 -999.00 2117.00 2117.00
      2108.00 2107.00 2105.00 2103.00 2102.00 2101.00 2101.00 2101.00 2100.00 2099.00 2097.00 2096.00 2095.00 2094.00 2093.00
      -999.00 -999.00 -999.00 -999.00 -999.00 -999.00
  10  -999.00 -999.00 -999.00 -999.00 -999.00 -999.00 -999.00 -999.00 -999.00 -999.00 -999.00 -999.00 -999.00 -999.00 -999.00
      -999.00 -999.00 -999.00 -999.00 -999.00 -999.00 -999.00 -999.00 -999.00 -999.00 -999.00 -999.00 -999.00 -999.00 -999.00
      -999.00 -999.00 -999.00 -999.00 -999.00 -999.00 -999.00 -999.00 -999.00 -999.00 -999.00 -999.00 -999.00 -999.00 -999.00
      -999.00 -999.00 2156.00 2154.00 2150.00 2151.00 2146.00 2137.00 -999.00 -999.00 -999.00 2114.00 2112.00 2110.00 2114.00
      2107.00 2106.00 2104.00 2102.00 2100.00 2100.00 2099.00 2099.00 2098.00 2097.00 2096.00 2095.00 2094.00 2093.00 2092.00
      2091.00 -999.00 -999.00 -999.00 -999.00 -999.00
  11  -999.00 -999.00 -999.00 -999.00 -999.00 -999.00 -999.00 -999.00 -999.00 -999.00 -999.00 -999.00 -999.00 -999.00 -999.00
      -999.00 -999.00 -999.00 -999.00 -999.00 -999.00 -999.00 -999.00 -999.00 -999.00 -999.00 -999.00 -999.00 -999.00 -999.00
      -999.00 -999.00 -999.00 -999.00 -999.00 -999.00 -999.00 -999.00 -999.00 -999.00 -999.00 -999.00 -999.00 -999.00 -999.00
      -999.00 2158.00 2155.00 2151.00 2146.00 2141.00 2137.00 2132.00 2127.00 2128.00 2125.00 2121.00 2116.00 2109.00 2108.00
      2106.00 2104.00 2102.00 2100.00 2098.00 2098.00 2097.00 2097.00 2096.00 2095.00 2094.00 2093.00 2092.00 2091.00 2090.00
      2089.00 -999.00 -999.00 -999.00 -999.00 -999.00
  12  -999.00 -999.00 -999.00 -999.00 -999.00 -999.00 -999.00 -999.00 -999.00 -999.00 -999.00 -999.00 -999.00 -999.00 -999.00
      -999.00 -999.00 -999.00 -999.00 -999.00 -999.00 -999.00 -999.00 -999.00 -999.00 -999.00 -999.00 -999.00 -999.00 -999.00
      -999.00 -999.00 -999.00 -999.00 -999.00 -999.00 -999.00 -999.00 -999.00 -999.00 -999.00 -999.00 -999.00 -999.00 -999.00
      -999.00 2158.00 2154.00 2148.00 2141.00 2137.00 2132.00 2128.00 2124.00 2127.00 2125.00 2119.00 2110.00 2108.00 2106.00
      2104.00 2102.00 2100.00 2097.00 2096.00 2095.00 2095.00 2094.00 2093.00 2092.00 2091.00 2090.00 2089.00 2088.00 2088.00
      2087.00 2085.00 -999.00 -999.00 -999.00 -999.00
  13  -999.00 -999.00 -999.00 -999.00 -999.00 -999.00 -999.00 -999.00 -999.00 -999.00 -999.00 -999.00 -999.00 -999.00 -999.00
      -999.00 -999.00 -999.00 -999.00 -999.00 -999.00 -999.00 -999.00 -999.00 -999.00 -999.00 -999.00 -999.00 -999.00 -999.00
      -999.00 -999.00 -999.00 -999.00 -999.00 -999.00 -999.00 -999.00 -999.00 -999.00 -999.00 -999.00 -999.00 -999.00 2171.00
      2167.00 2160.00 2154.00 2146.00 2139.00 2135.00 2130.00 2126.00 2121.00 2122.00 2122.00 2116.00 2108.00 2106.00 2104.00
      2102.00 2099.00 2097.00 2095.00 2093.00 2093.00 2092.00 2091.00 2090.00 2089.00 2088.00 2087.00 2086.00 2085.00 2085.00
      2084.00 2083.00 2088.00 -999.00 -999.00 -999.00
  14  -999.00 -999.00 -999.00 -999.00 -999.00 -999.00 -999.00 -999.00 -999.00 -999.00 -999.00 -999.00 -999.00 -999.00 -999.00
      -999.00 -999.00 -999.00 -999.00 -999.00 -999.00 -999.00 -999.00 -999.00 -999.00 -999.00 -999.00 -999.00 -999.00 -999.00
      -999.00 -999.00 -999.00 -999.00 -999.00 -999.00 -999.00 -999.00 -999.00 -999.00 -999.00 2191.00 2186.00 2180.00 2173.00
      2166.00 2160.00 2152.00 2144.00 2137.00 2133.00 2127.00 2122.00 2117.00 2113.00 2110.00 2112.00 2105.00 2103.00 2101.00
      2099.00 2096.00 2094.00 2092.00 2090.00 2089.00 2089.00 2088.00 2086.00 2085.00 2084.00 2083.00 2082.00 2082.00 2081.00
      2081.00 2081.00 2089.00 2093.00 -999.00 -999.00
  15  -999.00 -999.00 -999.00 -999.00 -999.00 -999.00 -999.00 -999.00 -999.00 -999.00 -999.00 -999.00 -999.00 -999.00 -999.00
      -999.00 -999.00 -999.00 -999.00 -999.00 -999.00 -999.00 -999.00 -999.00 -999.00 -999.00 -999.00 -999.00 -999.00 -999.00
      -999.00 -999.00 -999.00 -999.00 -999.00 -999.00 -999.00 -999.00 -999.00 -999.00 2198.00 2192.00 2185.00 2179.00 2172.00
      2165.00 2158.00 2150.00 2143.00 2136.00 2129.00 2122.00 2117.00 2112.00 2108.00 2105.00 2103.00 2101.00 2099.00 2097.00
      2095.00 2093.00 2091.00 2089.00 2087.00 2086.00 2085.00 2084.00 2082.00 2081.00 2079.00 2079.00 2078.00 2077.00 2077.00
      2077.00 2077.00 2086.00 2092.00 2096.00 -999.00
  16  -999.00 -999.00 -999.00 -999.00 -999.00 -999.00 -999.00 -999.00 -999.00 -999.00 -999.00 -999.00 -999.00 -999.00 -999.00
      -999.00 -999.00 -999.00 -999.00 -999.00 -999.00 -999.00 -999.00 -999.00 -999.00 -999.00 -999.00 -999.00 -999.00 -999.00
      -999.00 -999.00 -999.00 -999.00 -999.00 -999.00 -999.00 -999.00 -999.00 2201.00 2198.00 2191.00 2191.00 2176.00 2168.00
      2161.00 2154.00 2146.00 2139.00 2132.00 2124.00 2117.00 2109.00 2106.00 2102.00 2099.00 2098.00 2096.00 2094.00 2093.00
      2091.00 2089.00 2087.00 2085.00 2083.00 2082.00 2081.00 2079.00 2077.00 2075.00 2074.00 2073.00 2073.00 2072.00 2072.00
      2072.00 2073.00 2086.00 2091.00 2093.00 -999.00
  17  -999.00 -999.00 -999.00 -999.00 -999.00 -999.00 -999.00 -999.00 -999.00 -999.00 -999.00 -999.00 -999.00 -999.00 -999.00
      -999.00 -999.00 -999.00 -999.00 -999.00 -999.00 -999.00 -999.00 -999.00 -999.00 -999.00 -999.00 -999.00 -999.00 -999.00
      -999.00 -999.00 -999.00 -999.00 -999.00 -999.00 -999.00 -999.00 -999.00 2198.00 2205.00 2206.00 2200.00 2185.00 2167.00
      2155.00 2148.00 2140.00 2133.00 2126.00 2117.00 2108.00 2101.00 2098.00 2095.00 2093.00 2091.00 2090.00 2089.00 2088.00
      2087.00 2085.00 2084.00 2081.00 2080.00 2079.00 2077.00 2074.00 2072.00 2071.00 2070.00 2069.00 2069.00 2068.00 2068.00
      2069.00 2069.00 2085.00 2088.00 2088.00 -999.00
  18  -999.00 -999.00 -999.00 -999.00 -999.00 -999.00 -999.00 -999.00 -999.00 -999.00 -999.00 -999.00 -999.00 -999.00 -999.00
      -999.00 -999.00 -999.00 -999.00 -999.00 -999.00 -999.00 -999.00 -999.00 -999.00 -999.00 -999.00 -999.00 -999.00 -999.00
      -999.00 -999.00 -999.00 -999.00 -999.00 -999.00 -999.00 -999.00 -999.00 2213.00 2207.00 2198.00 2186.00 2172.00 2158.00
      2146.00 2139.00 2132.00 2125.00 2117.00 2108.00 2105.00 2101.00 2089.00 2087.00 2086.00 2085.00 2084.00 2083.00 2083.00
      2082.00 2081.00 2080.00 2078.00 2076.00 2075.00 2073.00 2071.00 2070.00 2069.00 2068.00 2067.00 2067.00 2066.00 2066.00
      2067.00 2067.00 2075.00 2080.00 2084.00 -999.00
  19  -999.00 -999.00 -999.00 -999.00 -999.00 -999.00 -999.00 -999.00 -999.00 -999.00 -999.00 -999.00 -999.00 -999.00 -999.00
      -999.00 -999.00 -999.00 -999.00 -999.00 -999.00 -999.00 -999.00 -999.00 -999.00 -999.00 -999.00 -999.00 -999.00 -999.00
      -999.00 -999.00 -999.00 -999.00 2227.00 2217.00 2218.00 2216.00 2208.00 2199.00 2189.00 2178.00 2168.00 2156.00 2142.00
      2136.00 2129.00 2122.00 2114.00 2106.00 2097.00 2087.00 2089.00 2079.00 2078.00 2077.00 2077.00 2077.00 2077.00 2077.00
      2077.00 2077.00 2076.00 2074.00 2073.00 2071.00 2069.00 2068.00 2067.00 2066.00 2065.00 2064.00 2064.00 2064.00 2064.00
      2064.00 2065.00 2066.00 2068.00 2078.00 2080.00
  20  -999.00 -999.00 -999.00 -999.00 -999.00 -999.00 -999.00 -999.00 -999.00 -999.00 -999.00 -999.00 -999.00 -999.00 -999.00
      -999.00 -999.00 -999.00 -999.00 -999.00 -999.00 -999.00 -999.00 -999.00 -999.00 -999.00 -999.00 -999.00 -999.00 -999.00
      -999.00 -999.00 2235.00 2221.00 2205.00 2191.00 2193.00 2193.00 2187.00 2178.00 2169.00 2158.00 2143.00 2137.00 2130.00
      2124.00 2117.00 2110.00 2102.00 2094.00 2085.00 2074.00 2066.00 2067.00 2068.00 2069.00 2069.00 2070.00 2071.00 2072.00
      2072.00 2072.00 2072.00 2071.00 2070.00 2068.00 2066.00 2065.00 2064.00 2063.00 2062.00 2061.00 2061.00 2061.00 2062.00
      2062.00 2063.00 2064.00 2066.00 2073.00 2077.00
  21  -999.00 -999.00 -999.00 -999.00 -999.00 -999.00 -999.00 -999.00 -999.00 -999.00 -999.00 -999.00 -999.00 -999.00 -999.00
      -999.00 -999.00 -999.00 -999.00 -999.00 -999.00 -999.00 -999.00 -999.00 -999.00 -999.00 -999.00 -999.00 -999.00 2249.00
      2238.00 2221.00 2208.00 2195.00 2188.00 2183.00 2177.00 2170.00 2161.00 2157.00 2145.00 2138.00 2131.00 2124.00 2117.00
      2111.00 2104.00 2097.00 2089.00 2081.00 2072.00 2061.00 2055.00 2057.00 2058.00 2060.00 2062.00 2063.00 2065.00 2066.00
      2067.00 2067.00 2068.00 2067.00 2067.00 2066.00 2064.00 2063.00 2061.00 2059.00 2058.00 2058.00 2058.00 2059.00 2059.00
      2060.00 2061.00 2063.00 2065.00 2066.00 2067.00
  22  -999.00 -999.00 -999.00 -999.00 -999.00 -999.00 -999.00 -999.00 -999.00 -999.00 -999.00 -999.00 -999.00 -999.00 -999.00
      -999.00 -999.00 -999.00 -999.00 -999.00 -999.00 -999.00 -999.00 -999.00 -999.00 -999.00 2241.00 2243.00 2238.00 2229.00
      2208.00 2200.00 2194.00 2187.00 2179.00 2171.00 2165.00 2157.00 2149.00 2143.00 2135.00 2127.00 2119.00 2111.00 2103.00
      2096.00 2089.00 2082.00 2073.00 2066.00 2059.00 2051.00 2049.00 2048.00 2048.00 2051.00 2054.00 2056.00 2058.00 2060.00
      2061.00 2062.00 2063.00 2063.00 2063.00 2063.00 2062.00 2061.00 2059.00 2057.00 2055.00 2055.00 2056.00 2057.00 2057.00
      2058.00 2059.00 2061.00 2063.00 2065.00 2066.00
  23  -999.00 -999.00 -999.00 -999.00 -999.00 -999.00 -999.00 -999.00 -999.00 -999.00 -999.00 -999.00 -999.00 -999.00 -999.00
      -999.00 -999.00 -999.00 -999.00 -999.00 -999.00 -999.00 -999.00 -999.00 2284.00 2267.00 2243.00 2224.00 2215.00 2206.00
      2198.00 2191.00 2184.00 2176.00 2168.00 2160.00 2155.00 2148.00 2141.00 2133.00 2125.00 2116.00 2107.00 2097.00 2086.00
      2079.00 2073.00 2066.00 2059.00 2055.00 2050.00 2045.00 2042.00 2040.00 2040.00 2043.00 2046.00 2049.00 2051.00 2054.00
      2056.00 2057.00 2058.00 2059.00 2059.00 2059.00 2059.00 2058.00 2057.00 2055.00 2053.00 2053.00 2054.00 2055.00 2057.00
      2057.00 2058.00 2060.00 2063.00 2064.00 2065.00
  24  -999.00 -999.00 -999.00 -999.00 -999.00 -999.00 -999.00 -999.00 -999.00 -999.00 -999.00 -999.00 -999.00 -999.00 -999.00
      -999.00 -999.00 -999.00 -999.00 -999.00 -999.00 -999.00 2295.00 2281.00 2265.00 2245.00 2230.00 2214.00 2203.00 2193.00
      2185.00 2178.00 2172.00 2164.00 2157.00 2152.00 2147.00 2140.00 2132.00 2123.00 2114.00 2104.00 2094.00 2082.00 2071.00
      2066.00 2061.00 2057.00 2053.00 2049.00 2045.00 2039.00 2035.00 2035.00 2034.00 2034.00 2038.00 2041.00 2045.00 2047.00
      2050.00 2052.00 2053.00 2054.00 2055.00 2055.00 2055.00 2054.00 2053.00 2052.00 2050.00 2051.00 2052.00 2053.00 2055.00
      2057.00 2058.00 2060.00 2062.00 2063.00 2072.00
  25  -999.00 -999.00 -999.00 -999.00 -999.00 -999.00 -999.00 -999.00 -999.00 -999.00 -999.00 -999.00 -999.00 -999.00 -999.00
      -999.00 -999.00 -999.00 -999.00 -999.00 2336.00 2303.00 2287.00 2271.00 2253.00 2237.00 2219.00 2202.00 2190.00 2181.00
      2174.00 2167.00 2161.00 2154.00 2149.00 2144.00 2137.00 2130.00 2122.00 2113.00 2103.00 2093.00 2082.00 2071.00 2063.00
      2059.00 2055.00 2051.00 2048.00 2044.00 2040.00 2034.00 2030.00 2029.00 2029.00 2027.00 2030.00 2034.00 2038.00 2041.00
      2043.00 2046.00 2048.00 2049.00 2050.00 2051.00 2051.00 2051.00 2050.00 2049.00 2047.00 2048.00 2049.00 2050.00 2053.00
      2055.00 2058.00 2060.00 2061.00 2063.00 -999.00
  26  -999.00 -999.00 -999.00 -999.00 -999.00 -999.00 -999.00 -999.00 -999.00 -999.00 -999.00 -999.00 -999.00 -999.00 -999.00
      -999.00 -999.00 -999.00 2345.00 2338.00 2314.00 2299.00 2281.00 2261.00 2242.00 2226.00 2208.00 2193.00 2180.00 2171.00
      2164.00 2158.00 2152.00 2146.00 2140.00 2134.00 2128.00 2120.00 2112.00 2102.00 2092.00 2080.00 2068.00 2059.00 2055.00
      2051.00 2048.00 2045.00 2042.00 2039.00 2035.00 2031.00 2027.00 2025.00 2024.00 2022.00 2024.00 2028.00 2031.00 2034.00
      2037.00 2039.00 2042.00 2043.00 2045.00 2046.00 2046.00 2047.00 2047.00 2047.00 2046.00 2046.00 2047.00 2047.00 2049.00
      2053.00 2057.00 2059.00 2061.00 -999.00 -999.00
  27  -999.00 -999.00 -999.00 -999.00 -999.00 -999.00 -999.00 -999.00 -999.00 -999.00 -999.00 -999.00 -999.00 -999.00 -999.00
      -999.00 -999.00 2333.00 2329.00 2320.00 2307.00 2288.00 2268.00 2249.00 2231.00 2216.00 2200.00 2185.00 2170.00 2160.00
      2153.00 2147.00 2141.00 2135.00 2130.00 2124.00 2118.00 2110.00 2102.00 2091.00 2079.00 2065.00 2056.00 2050.00 2047.00
      2044.00 2042.00 2039.00 2037.00 2034.00 2031.00 2027.00 2023.00 2020.00 2027.00 2018.00 2018.00 2021.00 2032.00 2027.00
      2030.00 2033.00 2035.00 2038.00 2039.00 2041.00 2042.00 2043.00 2043.00 2044.00 2044.00 2044.00 2044.00 2044.00 2046.00
      2047.00 -999.00 -999.00 -999.00 -999.00 -999.00
  28  -999.00 -999.00 -999.00 -999.00 -999.00 -999.00 -999.00 -999.00 -999.00 -999.00 -999.00 -999.00 -999.00 -999.00 -999.00
      -999.00 2340.00 2330.00 2321.00 2310.00 2296.00 2277.00 2258.00 2238.00 2222.00 2207.00 2193.00 2179.00 2164.00 2150.00
      2142.00 2136.00 2129.00 2123.00 2118.00 2114.00 2107.00 2099.00 2090.00 2080.00 2066.00 2056.00 2050.00 2043.00 2039.00
      2036.00 2034.00 2033.00 2032.00 2034.00 2026.00 2022.00 2018.00 2034.00 2025.00 2013.00 2012.00 2014.00 2027.00 2019.00
      2022.00 2026.00 2029.00 2031.00 2034.00 2035.00 2037.00 2038.00 2039.00 2040.00 2041.00 2042.00 2042.00 2042.00 2042.00
      2043.00 -999.00 -999.00 -999.00 -999.00 -999.00
  29  -999.00 -999.00 -999.00 -999.00 -999.00 -999.00 -999.00 -999.00 -999.00 -999.00 -999.00 2432.00 2407.00 2393.00 2379.00
      2362.00 2341.00 2321.00 2309.00 2298.00 2285.00 2267.00 2246.00 2227.00 2211.00 2197.00 2184.00 2171.00 2156.00 2142.00
      2136.00 2129.00 2122.00 2115.00 2110.00 2104.00 2095.00 2087.00 2079.00 2068.00 2058.00 2051.00 2044.00 2038.00 2035.00
      2031.00 2029.00 2027.00 2026.00 2024.00 2022.00 2018.00 2032.00 2028.00 2021.00 2008.00 2007.00 2007.00 2024.00 2034.00
      2015.00 2019.00 2022.00 2025.00 2027.00 2030.00 2031.00 2033.00 2035.00 2036.00 2037.00 2038.00 2039.00 2038.00 2038.00
      2038.00 -999.00 -999.00 -999.00 -999.00 -999.00
  30  -999.00 -999.00 -999.00 -999.00 -999.00 -999.00 -999.00 -999.00 -999.00 -999.00 2475.00 2429.00 2407.00 2395.00 2380.00
      2361.00 2334.00 2310.00 2302.00 2292.00 2278.00 2260.00 2238.00 2219.00 2205.00 2190.00 2177.00 2166.00 2155.00 2145.00
      2136.00 2128.00 2120.00 2112.00 2105.00 2095.00 2087.00 2080.00 2072.00 2064.00 2056.00 2049.00 2044.00 2039.00 2035.00
      2031.00 2027.00 2023.00 2022.00 2020.00 2023.00 2020.00 2026.00 2022.00 2010.00 2004.00 2002.00 2010.00 2022.00 2026.00
      2030.00 2012.00 2015.00 2019.00 2021.00 2023.00 2026.00 2028.00 2029.00 2031.00 2033.00 2034.00 2034.00 2034.00 2033.00
      2034.00 -999.00 -999.00 -999.00 -999.00 -999.00
  31  -999.00 -999.00 -999.00 -999.00 -999.00 -999.00 -999.00 -999.00 -999.00 2509.00 2474.00 2431.00 2409.00 2396.00 2381.00
      2362.00 2335.00 2310.00 2302.00 2292.00 2278.00 2260.00 2238.00 2219.00 2204.00 2189.00 2176.00 2165.00 2155.00 2145.00
      2136.00 2127.00 2118.00 2110.00 2101.00 2093.00 2086.00 2078.00 2072.00 2064.00 2057.00 2050.00 2045.00 2040.00 2035.00
      2031.00 2026.00 2022.00 2019.00 2016.00 2012.00 2008.00 2018.00 2018.00 2001.00 2000.00 1998.00 2006.00 2016.00 2017.00
      2021.00 2026.00 2031.00 2012.00 2015.00 2031.00 2032.00 2022.00 2024.00 2026.00 2027.00 2029.00 2029.00 2028.00 2028.00
      2029.00 -999.00 -999.00 -999.00 -999.00 -999.00
  32  -999.00 -999.00 -999.00 -999.00 -999.00 -999.00 -999.00 -999.00 2520.00 2508.00 2484.00 2445.00 2416.00 2396.00 2381.00
      2365.00 2344.00 2323.00 2311.00 2299.00 2284.00 2267.00 2245.00 2225.00 2210.00 2196.00 2182.00 2169.00 2154.00 2142.00
      2135.00 2128.00 2120.00 2112.00 2102.00 2094.00 2086.00 2080.00 2073.00 2067.00 2059.00 2054.00 2048.00 2042.00 2036.00
      2031.00 2025.00 2021.00 2017.00 2013.00 2008.00 2005.00 2001.00 1999.00 1998.00 1996.00 1994.00 1993.00 2003.00 2005.00
      2012.00 2018.00 2025.00 2030.00 2029.00 2024.00 2027.00 2015.00 2017.00 2019.00 2021.00 2023.00 2029.00 2031.00 2023.00
      2024.00 -999.00 -999.00 -999.00 -999.00 -999.00
  33  -999.00 -999.00 -999.00 -999.00 -999.00 -999.00 -999.00 -999.00 2519.00 2516.00 2482.00 2446.00 2415.00 2395.00 2380.00
      2365.00 2349.00 2333.00 2320.00 2308.00 2293.00 2275.00 2253.00 2234.00 2219.00 2205.00 2192.00 2177.00 2158.00 2143.00
      2138.00 2132.00 2124.00 2114.00 2104.00 2094.00 2086.00 2081.00 2075.00 2069.00 2064.00 2059.00 2052.00 2046.00 2043.00
      2031.00 2025.00 2020.00 2016.00 2013.00 2009.00 2003.00 1998.00 1996.00 1994.00 1992.00 1990.00 1989.00 1988.00 1995.00
      2001.00 2009.00 2016.00 2020.00 2019.00 2016.00 2022.00 2032.00 2009.00 2011.00 2012.00 2015.00 2025.00 2024.00 2032.00
      2034.00 -999.00 -999.00 -999.00 -999.00 -999.00
  34  -999.00 -999.00 -999.00 -999.00 -999.00 -999.00 2535.00 2526.00 2511.00 2503.00 2473.00 2436.00 2408.00 2392.00 2376.00
      2363.00 2349.00 2336.00 2332.00 2321.00 2297.00 2280.00 2259.00 2240.00 2224.00 2211.00 2200.00 2186.00 2167.00 2150.00
      2142.00 2136.00 2127.00 2117.00 2107.00 2096.00 2087.00 2083.00 2078.00 2072.00 2068.00 2064.00 2057.00 2050.00 2042.00
      2033.00 2026.00 2028.00 2017.00 2012.00 2007.00 2001.00 1996.00 1992.00 1991.00 1988.00 1987.00 1985.00 1984.00 1983.00
      1985.00 1997.00 2003.00 2005.00 2005.00 2007.00 2017.00 2027.00 2034.00 2004.00 2021.00 2020.00 2021.00 2013.00 2024.00
      2029.00 -999.00 -999.00 -999.00 -999.00 -999.00
  35  -999.00 -999.00 -999.00 -999.00 -999.00 2541.00 2534.00 2523.00 2506.00 2489.00 2456.00 2421.00 2402.00 2384.00 2366.00
      2356.00 2345.00 2342.00 2337.00 2332.00 2313.00 2282.00 2262.00 2244.00 2226.00 2211.00 2205.00 2193.00 2175.00 2160.00
      2150.00 2140.00 2130.00 2119.00 2109.00 2097.00 2090.00 2085.00 2080.00 2075.00 2071.00 2068.00 2061.00 2053.00 2045.00
      2036.00 2029.00 2025.00 2019.00 2021.00 2007.00 2001.00 1996.00 1992.00 1988.00 1985.00 1984.00 1983.00 1981.00 1981.00
      1980.00 1980.00 1988.00 1991.00 1992.00 1999.00 2009.00 2019.00 2021.00 2020.00 2018.00 2015.00 2014.00 2003.00 2015.00
      2023.00 -999.00 -999.00 -999.00 -999.00 -999.00
  36  -999.00 -999.00 -999.00 -999.00 -999.00 2537.00 2530.00 2517.00 2495.00 2469.00 2436.00 2414.00 2393.00 2370.00 2355.00
      2349.00 2342.00 2334.00 2325.00 2324.00 2317.00 2295.00 2264.00 2247.00 2231.00 2216.00 2205.00 2192.00 2179.00 2167.00
      2155.00 2143.00 2132.00 2122.00 2111.00 2100.00 2092.00 2088.00 2083.00 2078.00 2074.00 2071.00 2065.00 2057.00 2049.00
      2040.00 2034.00 2030.00 2032.00 2028.00 2012.00 1999.00 1995.00 1992.00 1988.00 1985.00 1982.00 1980.00 1978.00 1978.00
      1977.00 1976.00 1975.00 1975.00 1984.00 1993.00 2001.00 2008.00 2013.00 2014.00 2016.00 2007.00 2002.00 2004.00 2015.00
      2021.00 -999.00 -999.00 -999.00 -999.00 -999.00
  37  -999.00 -999.00 -999.00 -999.00 -999.00 2536.00 2523.00 2507.00 2480.00 2450.00 2428.00 2406.00 2381.00 2361.00 2355.00
      2349.00 2342.00 2334.00 2326.00 2314.00 2300.00 2291.00 2264.00 2252.00 2239.00 2223.00 2207.00 2194.00 2181.00 2168.00
      2157.00 2145.00 2134.00 2124.00 2113.00 2102.00 2095.00 2091.00 2086.00 2082.00 2078.00 2074.00 2068.00 2061.00 2053.00
      2044.00 2039.00 2036.00 2030.00 2021.00 2023.00 2007.00 1995.00 1992.00 1989.00 1985.00 1982.00 1980.00 1977.00 1975.00
      1974.00 1973.00 1972.00 1972.00 1979.00 1986.00 1991.00 1995.00 1999.00 1998.00 1996.00 1992.00 1990.00 2002.00 2012.00
      2015.00 -999.00 -999.00 -999.00 -999.00 -999.00
  38  -999.00 -999.00 -999.00 -999.00 -999.00 2536.00 2519.00 2495.00 2467.00 2441.00 2420.00 2398.00 2376.00 2362.00 2356.00
      2350.00 2343.00 2336.00 2327.00 2315.00 2302.00 2287.00 2270.00 2257.00 2243.00 2226.00 2210.00 2196.00 2183.00 2170.00
      2158.00 2146.00 2136.00 2126.00 2116.00 2105.00 2098.00 2094.00 2090.00 2087.00 2084.00 2078.00 2072.00 2065.00 2057.00
      2049.00 2045.00 2043.00 2037.00 2027.00 2032.00 2011.00 1997.00 1993.00 1989.00 1985.00 1983.00 1980.00 1977.00 1975.00
      1972.00 1971.00 1971.00 1970.00 1969.00 1978.00 1981.00 1981.00 1984.00 1983.00 1979.00 1974.00 1974.00 1990.00 1995.00
      2005.00 2013.00 -999.00 -999.00 -999.00 -999.00
  39  -999.00 -999.00 -999.00 -999.00 -999.00 2538.00 2521.00 2490.00 2453.00 2432.00 2410.00 2388.00 2374.00 2366.00 2358.00
      2352.00 2346.00 2338.00 2328.00 2316.00 2303.00 2288.00 2281.00 2270.00 2250.00 2228.00 2212.00 2198.00 2184.00 2171.00
      2159.00 2148.00 2137.00 2127.00 2118.00 2108.00 2102.00 2098.00 2095.00 2093.00 2089.00 2083.00 2076.00 2069.00 2061.00
      2054.00 2050.00 2051.00 2045.00 2034.00 2022.00 2019.00 2007.00 1996.00 1991.00 1987.00 1984.00 1981.00 1978.00 1975.00
      1973.00 1972.00 1970.00 1969.00 1968.00 1966.00 1965.00 1964.00 1965.00 1965.00 1966.00 1967.00 1967.00 1977.00 1980.00
      1990.00 2010.00 -999.00 -999.00 -999.00 -999.00
  40  -999.00 -999.00 -999.00 -999.00 2542.00 2532.00 2507.00 2467.00 2446.00 2424.00 2400.00 2382.00 2377.00 2370.00 2364.00
      2358.00 2351.00 2341.00 2330.00 2322.00 2319.00 2309.00 2293.00 2276.00 2260.00 2242.00 2223.00 2199.00 2186.00 2173.00
      2160.00 2148.00 2137.00 2128.00 2120.00 2111.00 2105.00 2102.00 2100.00 2097.00 2093.00 2087.00 2080.00 2080.00 2066.00
      2060.00 2057.00 2057.00 2052.00 2041.00 2030.00 2029.00 2011.00 2005.00 1999.00 1999.00 1994.00 1994.00 1990.00 1984.00
      1981.00 1973.00 1971.00 1970.00 1967.00 1965.00 1964.00 1962.00 1962.00 1961.00 1960.00 1960.00 1960.00 1966.00 1970.00
      1985.00 1995.00 1995.00 -999.00 -999.00 -999.00
  41  -999.00 -999.00 -999.00 -999.00 2542.00 2520.00 2483.00 2461.00 2438.00 2415.00 2398.00 2386.00 2381.00 2373.00 2366.00
      2361.00 2357.00 2349.00 2337.00 2336.00 2332.00 2315.00 2293.00 2276.00 2259.00 2240.00 2217.00 2203.00 2189.00 2175.00
      2162.00 2147.00 2136.00 2129.00 2121.00 2114.00 2108.00 2106.00 2105.00 2103.00 2106.00 2094.00 2088.00 2082.00 2083.00
      2068.00 2065.00 2063.00 2059.00 2050.00 2038.00 2028.00 2028.00 2022.00 2019.00 2017.00 2012.00 2011.00 2005.00 2000.00
      1988.00 1981.00 1973.00 1972.00 1969.00 1966.00 1964.00 1962.00 1960.00 1957.00 1955.00 1954.00 1953.00 1952.00 1962.00
      1972.00 1975.00 1975.00 1970.00 -999.00 -999.00
  42  -999.00 -999.00 -999.00 2555.00 2537.00 2502.00 2479.00 2456.00 2427.00 2406.00 2401.00 2393.00 2387.00 2383.00 2378.00
      2372.00 2367.00 2360.00 2348.00 2334.00 2318.00 2297.00 2284.00 2268.00 2254.00 2238.00 2222.00 2207.00 2193.00 2179.00
      2164.00 2147.00 2136.00 2130.00 2124.00 2117.00 2112.00 2110.00 2110.00 2109.00 2117.00 2110.00 2097.00 2091.00 2085.00
      2077.00 2073.00 2070.00 2067.00 2060.00 2052.00 2036.00 2029.00 2025.00 2019.00 2012.00 2031.00 2027.00 2022.00 2015.00
      2001.00 1987.00 1981.00 1986.00 1985.00 1985.00 1970.00 1962.00 1958.00 1955.00 1952.00 1949.00 1946.00 1946.00 1944.00
      1941.00 1945.00 1945.00 1945.00 -999.00 -999.00
  43  -999.00 -999.00 -999.00 2559.00 2526.00 2501.00 2480.00 2455.00 2427.00 2408.00 2405.00 2402.00 2399.00 2398.00 2395.00
      2389.00 2382.00 2371.00 2358.00 2343.00 2326.00 2303.00 2284.00 2271.00 2258.00 2242.00 2226.00 2211.00 2197.00 2182.00
      2166.00 2149.00 2137.00 2132.00 2126.00 2120.00 2116.00 2114.00 2114.00 2114.00 2113.00 2110.00 2105.00 2099.00 2093.00
      2085.00 2080.00 2078.00 2077.00 2073.00 2063.00 2059.00 2044.00 2039.00 2031.00 2028.00 2018.00 2004.00 2027.00 2014.00
      2001.00 1990.00 1988.00 1997.00 1995.00 1995.00 1985.00 1975.00 1975.00 1963.00 1951.00 1947.00 1945.00 1943.00 1941.00
      1939.00 1937.00 1934.00 1930.00 1900.00 -999.00
  44  -999.00 -999.00 2576.00 2548.00 2522.00 2506.00 2483.00 2452.00 2427.00 2417.00 2412.00 2411.00 2412.00 2412.00 2410.00
      2404.00 2402.00 2382.00 2367.00 2351.00 2333.00 2310.00 2288.00 2275.00 2261.00 2245.00 2229.00 2215.00 2200.00 2185.00
      2169.00 2151.00 2139.00 2134.00 2129.00 2124.00 2120.00 2119.00 2118.00 2119.00 2118.00 2116.00 2111.00 2106.00 2100.00
      2092.00 2087.00 2087.00 2087.00 2085.00 2081.00 2080.00 2072.00 2065.00 2056.00 2045.00 2032.00 2018.00 2027.00 2015.00
      2006.00 1995.00 1996.00 2006.00 2006.00 2000.00 1995.00 1985.00 1985.00 1971.00 1952.00 1948.00 1946.00 1943.00 1940.00
      1938.00 1936.00 1934.00 1930.00 1900.00 -999.00
  45  -999.00 2596.00 2552.00 2539.00 2527.00 2511.00 2490.00 2458.00 2433.00 2424.00 2419.00 2417.00 2424.00 2426.00 2423.00
      2424.00 2422.00 2406.00 2376.00 2359.00 2342.00 2321.00 2296.00 2277.00 2264.00 2248.00 2232.00 2217.00 2202.00 2187.00
      2171.00 2153.00 2142.00 2137.00 2132.00 2127.00 2124.00 2123.00 2122.00 2123.00 2122.00 2121.00 2117.00 2112.00 2106.00
      2098.00 2094.00 2096.00 2097.00 2096.00 2094.00 2100.00 2099.00 2092.00 2080.00 2063.00 2042.00 2019.00 2030.00 2017.00
      2009.00 2001.00 2003.00 2010.00 2020.00 2010.00 2005.00 1995.00 1992.00 1973.00 1960.00 1949.00 1947.00 1945.00 1942.00
      1939.00 1937.00 1934.00 1930.00 1900.00 -999.00
  46  -999.00 2589.00 2553.00 2542.00 2531.00 2517.00 2498.00 2469.00 2444.00 2441.00 2437.00 2437.00 2441.00 2441.00 2437.00
      2438.00 2441.00 2428.00 2396.00 2367.00 2349.00 2330.00 2305.00 2281.00 2267.00 2251.00 2234.00 2219.00 2204.00 2189.00
      2172.00 2155.00 2144.00 2139.00 2134.00 2130.00 2128.00 2126.00 2125.00 2124.00 2125.00 2125.00 2123.00 2119.00 2112.00
      2105.00 2099.00 2103.00 2105.00 2105.00 2111.00 2118.00 2122.00 2116.00 2098.00 2078.00 2051.00 2026.00 2034.00 2022.00
      2015.00 2006.00 2007.00 2013.00 2021.00 2020.00 2010.00 2007.00 1995.00 1972.00 1958.00 1953.00 1949.00 1947.00 1944.00
      1941.00 1940.00 1937.00 -999.00 -999.00 -999.00
  47  2614.00 2588.00 2555.00 2546.00 2535.00 2523.00 2508.00 2488.00 2467.00 2464.00 2461.00 2459.00 2457.00 2455.00 2449.00
      2451.00 2454.00 2438.00 2407.00 2376.00 2357.00 2339.00 2316.00 2290.00 2274.00 2261.00 2236.00 2220.00 2205.00 2190.00
      2174.00 2157.00 2146.00 2141.00 2136.00 2133.00 2131.00 2129.00 2128.00 2126.00 2128.00 2129.00 2129.00 2125.00 2120.00
      2114.00 2108.00 2109.00 2111.00 2112.00 2123.00 2137.00 2140.00 2129.00 2112.00 2089.00 2057.00 2033.00 2022.00 2028.00
      2022.00 2013.00 2014.00 2017.00 2022.00 2020.00 2010.00 2007.00 1994.00 1977.00 1962.00 1957.00 1954.00 1950.00 1948.00
      1944.00 1942.00 1940.00 -999.00 -999.00 -999.00
  48  -999.00 2596.00 2559.00 2550.00 2541.00 2530.00 2518.00 2504.00 2489.00 2482.00 2477.00 2474.00 2471.00 2466.00 2460.00
      2465.00 2465.00 2449.00 2426.00 2394.00 2365.00 2347.00 2326.00 2300.00 2280.00 2265.00 2238.00 2221.00 2206.00 2191.00
      2175.00 2158.00 2148.00 2143.00 2138.00 2135.00 2133.00 2132.00 2130.00 2130.00 2132.00 2134.00 2134.00 2132.00 2132.00
      2121.00 2116.00 2114.00 2115.00 2117.00 2134.00 2150.00 2157.00 2142.00 2124.00 2100.00 2066.00 2040.00 2029.00 2030.00
      2024.00 2021.00 2022.00 2023.00 2027.00 2020.00 2011.00 2003.00 1993.00 1981.00 1967.00 1961.00 1958.00 1955.00 1959.00
      1955.00 1946.00 -999.00 -999.00 -999.00 -999.00
  49  -999.00 -999.00 2583.00 2558.00 2550.00 2542.00 2532.00 2521.00 2511.00 2503.00 2497.00 2493.00 2489.00 2482.00 2474.00
      2478.00 2478.00 2461.00 2440.00 2410.00 2382.00 2355.00 2336.00 2312.00 2287.00 2268.00 2247.00 2222.00 2206.00 2191.00
      2175.00 2159.00 2149.00 2145.00 2140.00 2137.00 2136.00 2134.00 2133.00 2133.00 2136.00 2138.00 2139.00 2138.00 2139.00
      2128.00 2121.00 2118.00 2119.00 2120.00 2137.00 2161.00 2172.00 2159.00 2134.00 2110.00 2077.00 2048.00 2036.00 2034.00
      2029.00 2030.00 2031.00 2029.00 2026.00 2018.00 2008.00 2000.00 1986.00 1978.00 1972.00 1967.00 1963.00 1961.00 1973.00
      1969.00 -999.00 -999.00 -999.00 -999.00 -999.00
  50  -999.00 -999.00 -999.00 2587.00 2568.00 2560.00 2556.00 2535.00 2547.00 2522.00 2517.00 2512.00 2506.00 2495.00 2486.00
      2491.00 2488.00 2471.00 2448.00 2418.00 2391.00 2362.00 2343.00 2322.00 2299.00 2274.00 2252.00 2222.00 2207.00 2191.00
      2174.00 2160.00 2151.00 2147.00 2143.00 2140.00 2138.00 2136.00 2135.00 2136.00 2139.00 2142.00 2144.00 2144.00 2146.00
      2140.00 2126.00 2121.00 2123.00 2124.00 2131.00 2164.00 2179.00 2170.00 2146.00 2117.00 2085.00 2055.00 2044.00 2035.00
      2031.00 2027.00 2023.00 2021.00 2025.00 2017.00 2005.00 1998.00 1990.00 1982.00 1976.00 1973.00 1970.00 1969.00 1981.00
      1986.00 -999.00 -999.00 -999.00 -999.00 -999.00
  51  -999.00 -999.00 -999.00 -999.00 -999.00 -999.00 -999.00 -999.00 2575.00 2559.00 2539.00 2523.00 2520.00 -999.00 -999.00
      2503.00 2500.00 2481.00 2452.00 2421.00 2396.00 2373.00 2350.00 2329.00 2307.00 2283.00 2257.00 2232.00 2211.00 2189.00
      2170.00 2159.00 2153.00 2149.00 2145.00 2142.00 2141.00 2139.00 2138.00 2140.00 2143.00 2149.00 2153.00 2162.00 2164.00
      2157.00 2135.00 2128.00 2128.00 2129.00 2136.00 2164.00 2185.00 2180.00 2157.00 2125.00 2092.00 2060.00 2052.00 2042.00
      2039.00 2034.00 2030.00 2027.00 2028.00 2016.00 2009.00 2002.00 1994.00 1986.00 1980.00 1978.00 1977.00 1976.00 1985.00
      1993.00 -999.00 -999.00 -999.00 -999.00 -999.00
  52  -999.00 -999.00 -999.00 -999.00 -999.00 -999.00 -999.00 -999.00 -999.00 -999.00 -999.00 -999.00 -999.00 -999.00 -999.00
      -999.00 2502.00 2483.00 2453.00 2425.00 2398.00 2372.00 2354.00 2334.00 2312.00 2289.00 2264.00 2239.00 2215.00 2189.00
      2168.00 2159.00 2155.00 2151.00 2147.00 2145.00 2144.00 2143.00 2142.00 2144.00 2149.00 2157.00 2174.00 2185.00 2189.00
      2176.00 2145.00 2136.00 2134.00 2134.00 2141.00 2165.00 2186.00 2186.00 2163.00 2131.00 2099.00 2073.00 2056.00 2047.00
      2044.00 2041.00 2036.00 2033.00 2028.00 2021.00 2014.00 2006.00 1999.00 1991.00 1985.00 1983.00 1983.00 1982.00 1992.00
      2002.00 -999.00 -999.00 -999.00 -999.00 -999.00
  53  -999.00 -999.00 -999.00 -999.00 -999.00 -999.00 -999.00 -999.00 -999.00 -999.00 -999.00 -999.00 -999.00 -999.00 -999.00
      -999.00 -999.00 2479.00 2451.00 2424.00 2397.00 2374.00 2357.00 2338.00 2315.00 2291.00 2268.00 2243.00 2217.00 2190.00
      2168.00 2160.00 2156.00 2153.00 2150.00 2148.00 2147.00 2146.00 2147.00 2149.00 2155.00 2178.00 2195.00 2206.00 2210.00
      2190.00 2155.00 2143.00 2139.00 2140.00 2147.00 2167.00 2187.00 2190.00 2163.00 2132.00 2103.00 2078.00 2063.00 2052.00
      2048.00 2045.00 2042.00 2038.00 2033.00 2025.00 2018.00 2011.00 2003.00 1996.00 1991.00 1989.00 1988.00 1995.00 2001.00
      2008.00 -999.00 -999.00 -999.00 -999.00 -999.00
  54  -999.00 -999.00 -999.00 -999.00 -999.00 -999.00 -999.00 -999.00 -999.00 -999.00 -999.00 -999.00 -999.00 -999.00 -999.00
      -999.00 -999.00 -999.00 2448.00 2422.00 2391.00 2374.00 2357.00 2346.00 2316.00 2293.00 2269.00 2245.00 2219.00 2191.00
      2169.00 2161.00 2158.00 2155.00 2152.00 2150.00 2149.00 2149.00 2150.00 2153.00 2160.00 2184.00 2203.00 2218.00 2223.00
      2197.00 2164.00 2150.00 2145.00 2145.00 2152.00 2169.00 2189.00 2193.00 2165.00 2129.00 2108.00 2087.00 2071.00 2058.00
      2053.00 2051.00 2047.00 2043.00 2037.00 2029.00 2022.00 2015.00 2007.00 2008.00 1996.00 1994.00 1999.00 2005.00 2008.00
      2014.00 -999.00 -999.00 -999.00 -999.00 -999.00
  55  -999.00 -999.00 -999.00 -999.00 -999.00 -999.00 -999.00 -999.00 -999.00 -999.00 -999.00 -999.00 -999.00 -999.00 -999.00
      -999.00 -999.00 -999.00 2446.00 2417.00 2391.00 2370.00 2355.00 2338.00 2317.00 2293.00 2269.00 2245.00 2220.00 2191.00
      2169.00 2162.00 2159.00 2156.00 2154.00 2152.00 2152.00 2151.00 2153.00 2157.00 2166.00 2178.00 2201.00 2219.00 2228.00
      2209.00 2178.00 2157.00 2150.00 2151.00 2159.00 2168.00 2194.00 2198.00 2165.00 2138.00 2118.00 2097.00 2079.00 2065.00
      2059.00 2056.00 2053.00 2048.00 2041.00 2034.00 2031.00 2025.00 2024.00 2020.00 2006.00 1999.00 2008.00 2013.00 2017.00
      2022.00 -999.00 -999.00 -999.00 -999.00 -999.00
  56  -999.00 -999.00 -999.00 -999.00 -999.00 -999.00 -999.00 -999.00 -999.00 -999.00 -999.00 -999.00 -999.00 -999.00 -999.00
      -999.00 -999.00 -999.00 -999.00 -999.00 -999.00 2362.00 2351.00 2336.00 2316.00 2292.00 2268.00 2245.00 2220.00 2192.00
      2170.00 2163.00 2160.00 2157.00 2155.00 2154.00 2153.00 2153.00 2155.00 2162.00 2171.00 2184.00 2202.00 2221.00 2234.00
      2229.00 2195.00 2173.00 2159.00 2159.00 2165.00 2177.00 2201.00 2201.00 2164.00 2146.00 2128.00 2109.00 2089.00 2073.00
      2066.00 2062.00 2058.00 2054.00 2046.00 2037.00 2031.00 2024.00 2016.00 2031.00 2017.00 2004.00 2018.00 2026.00 2029.00
      2005.00 -999.00 -999.00 -999.00 -999.00 -999.00
  57  -999.00 -999.00 -999.00 -999.00 -999.00 -999.00 -999.00 -999.00 -999.00 -999.00 -999.00 -999.00 -999.00 -999.00 -999.00
      -999.00 -999.00 -999.00 -999.00 -999.00 -999.00 -999.00 2344.00 2331.00 2313.00 2291.00 2267.00 2244.00 2220.00 2193.00
      2171.00 2163.00 2160.00 2158.00 2157.00 2155.00 2155.00 2155.00 2158.00 2165.00 2175.00 2189.00 2208.00 2228.00 2242.00
      2241.00 2214.00 2189.00 2170.00 2171.00 2174.00 2185.00 2209.00 2207.00 2175.00 2157.00 2138.00 2121.00 2099.00 2082.00
      2081.00 2074.00 2066.00 2062.00 2054.00 2043.00 2034.00 2029.00 2021.00 2015.00 2031.00 2018.00 2029.00 2014.00 2016.00
      2022.00 -999.00 -999.00 -999.00 -999.00 -999.00
  58  -999.00 -999.00 -999.00 -999.00 -999.00 -999.00 -999.00 -999.00 -999.00 -999.00 -999.00 -999.00 -999.00 -999.00 -999.00
      -999.00 -999.00 -999.00 -999.00 -999.00 -999.00 -999.00 -999.00 2323.00 2310.00 2290.00 2267.00 2244.00 2221.00 2195.00
      2174.00 2163.00 2161.00 2159.00 2158.00 2157.00 2156.00 2157.00 2160.00 2168.00 2178.00 2193.00 2214.00 2237.00 2255.00
      2251.00 2230.00 2204.00 2187.00 2181.00 2184.00 2190.00 2219.00 2213.00 2187.00 2171.00 2151.00 2133.00 2112.00 2101.00
      2096.00 2086.00 2074.00 2070.00 2064.00 2054.00 2042.00 2035.00 2029.00 2032.00 2019.00 2031.00 2014.00 2020.00 2026.00
      2029.00 -999.00 -999.00 -999.00 -999.00 -999.00
  59  -999.00 -999.00 -999.00 -999.00 -999.00 -999.00 -999.00 -999.00 -999.00 -999.00 -999.00 -999.00 -999.00 -999.00 -999.00
      -999.00 -999.00 -999.00 -999.00 -999.00 -999.00 -999.00 -999.00 -999.00 -999.00 -999.00 -999.00 -999.00 -999.00 2185.00
      2172.00 2163.00 2161.00 2159.00 2158.00 2158.00 2157.00 2158.00 2161.00 2170.00 2182.00 2197.00 2214.00 2242.00 2265.00
      2265.00 2242.00 2217.00 2201.00 2189.00 2192.00 2201.00 2225.00 2218.00 2198.00 2184.00 2166.00 2147.00 2127.00 2116.00
      2111.00 2100.00 2082.00 2077.00 2072.00 2063.00 2052.00 2044.00 2048.00 2048.00 2027.00 2024.00 2021.00 2026.00 2032.00
      2034.00 -999.00 -999.00 -999.00 -999.00 -999.00
  60  -999.00 -999.00 -999.00 -999.00 -999.00 -999.00 -999.00 -999.00 -999.00 -999.00 -999.00 -999.00 -999.00 -999.00 -999.00
      -999.00 -999.00 -999.00 -999.00 -999.00 -999.00 -999.00 -999.00 -999.00 -999.00 -999.00 -999.00 -999.00 -999.00 -999.00
      -999.00 2162.00 2161.00 2160.00 2159.00 2158.00 2158.00 2159.00 2164.00 2174.00 2185.00 2200.00 2217.00 2244.00 2272.00
      2277.00 2260.00 2231.00 2219.00 2210.00 2210.00 2217.00 2226.00 2223.00 2208.00 2195.00 2179.00 2160.00 2140.00 2133.00
      2125.00 2113.00 2094.00 2087.00 2081.00 2072.00 2062.00 2053.00 2057.00 2057.00 2036.00 2033.00 2031.00 2038.00 2039.00
      2040.00 -999.00 -999.00 -999.00 -999.00 -999.00
  61  -999.00 -999.00 -999.00 -999.00 -999.00 -999.00 -999.00 -999.00 -999.00 -999.00 -999.00 -999.00 -999.00 -999.00 -999.00
      -999.00 -999.00 -999.00 -999.00 -999.00 -999.00 -999.00 -999.00 -999.00 -999.00 -999.00 -999.00 -999.00 -999.00 -999.00
      -999.00 -999.00 2161.00 2160.00 2160.00 2159.00 2159.00 2160.00 2166.00 2176.00 2186.00 2202.00 2219.00 2244.00 2272.00
      2285.00 2274.00 2241.00 2236.00 2233.00 2232.00 2234.00 2233.00 2229.00 2220.00 2208.00 2194.00 2178.00 2160.00 2155.00
      2145.00 2121.00 2110.00 2100.00 2091.00 2081.00 2071.00 2063.00 2058.00 2050.00 2042.00 2041.00 2042.00 2043.00 2044.00
      2045.00 -999.00 -999.00 -999.00 -999.00 -999.00
  62  -999.00 -999.00 -999.00 -999.00 -999.00 -999.00 -999.00 -999.00 -999.00 -999.00 -999.00 -999.00 -999.00 -999.00 -999.00
      -999.00 -999.00 -999.00 -999.00 -999.00 -999.00 -999.00 -999.00 -999.00 -999.00 -999.00 -999.00 -999.00 -999.00 -999.00
      -999.00 -999.00 -999.00 2161.00 2160.00 -999.00 -999.00 -999.00 -999.00 -999.00 -999.00 -999.00 -999.00 -999.00 -999.00
      -999.00 2286.00 2262.00 2250.00 2248.00 2248.00 2248.00 2246.00 2241.00 2233.00 2221.00 2208.00 2195.00 2180.00 2175.00
      2163.00 2136.00 2124.00 2112.00 2100.00 2087.00 2077.00 2071.00 2067.00 2062.00 2054.00 2051.00 2052.00 2053.00 2053.00
      2053.00 -999.00 -999.00 -999.00 -999.00 -999.00
  63  -999.00 -999.00 -999.00 -999.00 -999.00 -999.00 -999.00 -999.00 -999.00 -999.00 -999.00 -999.00 -999.00 -999.00 -999.00
      -999.00 -999.00 -999.00 -999.00 -999.00 -999.00 -999.00 -999.00 -999.00 -999.00 -999.00 -999.00 -999.00 -999.00 -999.00
      -999.00 -999.00 -999.00 -999.00 -999.00 -999.00 -999.00 -999.00 -999.00 -999.00 -999.00 -999.00 -999.00 -999.00 -999.00
      -999.00 2295.00 2280.00 2263.00 2261.00 2260.00 2259.00 2258.00 2253.00 2250.00 2234.00 2222.00 2209.00 2196.00 2191.00
      2177.00 2149.00 2135.00 2122.00 2108.00 2094.00 2082.00 2077.00 2073.00 2070.00 2066.00 2064.00 2062.00 2062.00 2061.00
      2061.00 -999.00 -999.00 -999.00 -999.00 -999.00
  64  -999.00 -999.00 -999.00 -999.00 -999.00 -999.00 -999.00 -999.00 -999.00 -999.00 -999.00 -999.00 -999.00 -999.00 -999.00
      -999.00 -999.00 -999.00 -999.00 -999.00 -999.00 -999.00 -999.00 -999.00 -999.00 -999.00 -999.00 -999.00 -999.00 -999.00
      -999.00 -999.00 -999.00 -999.00 -999.00 -999.00 -999.00 -999.00 -999.00 -999.00 -999.00 -999.00 -999.00 -999.00 -999.00
      -999.00 -999.00 2291.00 2275.00 2271.00 2271.00 2270.00 2268.00 2265.00 2265.00 2256.00 2242.00 2228.00 2210.00 2207.00
      2192.00 2169.00 2145.00 2130.00 2116.00 2102.00 2090.00 2083.00 2080.00 2078.00 2076.00 2073.00 2071.00 2070.00 2069.00
      2075.00 -999.00 -999.00 -999.00 -999.00 -999.00
  65  -999.00 -999.00 -999.00 -999.00 -999.00 -999.00 -999.00 -999.00 -999.00 -999.00 -999.00 -999.00 -999.00 -999.00 -999.00
      -999.00 -999.00 -999.00 -999.00 -999.00 -999.00 -999.00 -999.00 -999.00 -999.00 -999.00 -999.00 -999.00 -999.00 -999.00
      -999.00 -999.00 -999.00 -999.00 -999.00 -999.00 -999.00 -999.00 -999.00 -999.00 -999.00 -999.00 -999.00 -999.00 -999.00
      -999.00 -999.00 -999.00 2290.00 2282.00 2280.00 2279.00 2277.00 2274.00 2269.00 2274.00 2262.00 2249.00 2237.00 2226.00
      2209.00 2185.00 2153.00 2137.00 2121.00 2108.00 2100.00 2092.00 2089.00 2086.00 2084.00 2081.00 2079.00 2077.00 2081.00
      2082.00 -999.00 -999.00 -999.00 -999.00 -999.00
  66  -999.00 -999.00 -999.00 -999.00 -999.00 -999.00 -999.00 -999.00 -999.00 -999.00 -999.00 -999.00 -999.00 -999.00 -999.00
      -999.00 -999.00 -999.00 -999.00 -999.00 -999.00 -999.00 -999.00 -999.00 -999.00 -999.00 -999.00 -999.00 -999.00 -999.00
      -999.00 -999.00 -999.00 -999.00 -999.00 -999.00 -999.00 -999.00 -999.00 -999.00 -999.00 -999.00 -999.00 -999.00 -999.00
      -999.00 -999.00 -999.00 -999.00 2292.00 2289.00 2287.00 2285.00 2282.00 2278.00 2288.00 2279.00 2266.00 2252.00 2237.00
      2220.00 2194.00 2165.00 2143.00 2126.00 2114.00 2107.00 2101.00 2097.00 2093.00 2090.00 2088.00 2086.00 2084.00 2088.00
      2089.00 -999.00 -999.00 -999.00 -999.00 -999.00
  67  -999.00 -999.00 -999.00 -999.00 -999.00 -999.00 -999.00 -999.00 -999.00 -999.00 -999.00 -999.00 -999.00 -999.00 -999.00
      -999.00 -999.00 -999.00 -999.00 -999.00 -999.00 -999.00 -999.00 -999.00 -999.00 -999.00 -999.00 -999.00 -999.00 -999.00
      -999.00 -999.00 -999.00 -999.00 -999.00 -999.00 -999.00 -999.00 -999.00 -999.00 -999.00 -999.00 -999.00 -999.00 -999.00
      -999.00 -999.00 -999.00 -999.00 2298.00 2296.00 2293.00 2291.00 2290.00 2287.00 2300.00 2291.00 2279.00 2262.00 2242.00
      2222.00 2197.00 2165.00 2148.00 2131.00 2119.00 2113.00 2108.00 2103.00 2099.00 2096.00 2094.00 2092.00 2091.00 2096.00
      2097.00 -999.00 -999.00 -999.00 -999.00 -999.00
  68  -999.00 -999.00 -999.00 -999.00 -999.00 -999.00 -999.00 -999.00 -999.00 -999.00 -999.00 -999.00 -999.00 -999.00 -999.00
      -999.00 -999.00 -999.00 -999.00 -999.00 -999.00 -999.00 -999.00 -999.00 -999.00 -999.00 -999.00 -999.00 -999.00 -999.00
      -999.00 -999.00 -999.00 -999.00 -999.00 -999.00 -999.00 -999.00 -999.00 -999.00 -999.00 -999.00 -999.00 -999.00 -999.00
      -999.00 -999.00 -999.00 -999.00 -999.00 2298.00 2296.00 2295.00 2294.00 2293.00 2308.00 2301.00 2286.00 2264.00 2242.00
      2222.00 2195.00 2170.00 2152.00 2136.00 2124.00 2118.00 2112.00 2108.00 2104.00 2101.00 2099.00 2097.00 2101.00 2105.00
      2106.00 -999.00 -999.00 -999.00 -999.00 -999.00
  69  -999.00 -999.00 -999.00 -999.00 -999.00 -999.00 -999.00 -999.00 -999.00 -999.00 -999.00 -999.00 -999.00 -999.00 -999.00
      -999.00 -999.00 -999.00 -999.00 -999.00 -999.00 -999.00 -999.00 -999.00 -999.00 -999.00 -999.00 -999.00 -999.00 -999.00
      -999.00 -999.00 -999.00 -999.00 -999.00 -999.00 -999.00 -999.00 -999.00 -999.00 -999.00 -999.00 -999.00 -999.00 -999.00
      -999.00 -999.00 -999.00 -999.00 -999.00 -999.00 -999.00 -999.00 -999.00 -999.00 -999.00 2306.00 2288.00 2266.00 2241.00
      2218.00 2195.00 2175.00 2154.00 2139.00 2129.00 2122.00 2116.00 2111.00 2107.00 2104.00 2102.00 2100.00 2107.00 2113.00
      2114.00 -999.00 -999.00 -999.00 -999.00 -999.00
  70  -999.00 -999.00 -999.00 -999.00 -999.00 -999.00 -999.00 -999.00 -999.00 -999.00 -999.00 -999.00 -999.00 -999.00 -999.00
      -999.00 -999.00 -999.00 -999.00 -999.00 -999.00 -999.00 -999.00 -999.00 -999.00 -999.00 -999.00 -999.00 -999.00 -999.00
      -999.00 -999.00 -999.00 -999.00 -999.00 -999.00 -999.00 -999.00 -999.00 -999.00 -999.00 -999.00 -999.00 -999.00 -999.00
      -999.00 -999.00 -999.00 -999.00 -999.00 -999.00 -999.00 -999.00 -999.00 -999.00 -999.00 2312.00 2293.00 2270.00 2245.00
      2224.00 2203.00 2181.00 2155.00 2142.00 2132.00 2124.00 2118.00 2113.00 2109.00 2106.00 2103.00 2102.00 2110.00 2116.00
      -999.00 -999.00 -999.00 -999.00 -999.00 -999.00
  71  -999.00 -999.00 -999.00 -999.00 -999.00 -999.00 -999.00 -999.00 -999.00 -999.00 -999.00 -999.00 -999.00 -999.00 -999.00
      -999.00 -999.00 -999.00 -999.00 -999.00 -999.00 -999.00 -999.00 -999.00 -999.00 -999.00 -999.00 -999.00 -999.00 -999.00
      -999.00 -999.00 -999.00 -999.00 -999.00 -999.00 -999.00 -999.00 -999.00 -999.00 -999.00 -999.00 -999.00 -999.00 -999.00
      -999.00 -999.00 -999.00 -999.00 -999.00 -999.00 -999.00 -999.00 -999.00 -999.00 -999.00 -999.00 2303.00 2279.00 2252.00
      2231.00 2215.00 2199.00 2181.00 -999.00 -999.00 -999.00 -999.00 -999.00 -999.00 -999.00 -999.00 -999.00 -999.00 2120.00
      -999.00 -999.00 -999.00 -999.00 -999.00 -999.00
  72  -999.00 -999.00 -999.00 -999.00 -999.00 -999.00 -999.00 -999.00 -999.00 -999.00 -999.00 -999.00 -999.00 -999.00 -999.00
      -999.00 -999.00 -999.00 -999.00 -999.00 -999.00 -999.00 -999.00 -999.00 -999.00 -999.00 -999.00 -999.00 -999.00 -999.00
      -999.00 -999.00 -999.00 -999.00 -999.00 -999.00 -999.00 -999.00 -999.00 -999.00 -999.00 -999.00 -999.00 -999.00 -999.00
      -999.00 -999.00 -999.00 -999.00 -999.00 -999.00 -999.00 -999.00 -999.00 -999.00 -999.00 -999.00 -999.00 2288.00 2260.00
      2237.00 2227.00 -999.00 -999.00 -999.00 -999.00 -999.00 -999.00 -999.00 -999.00 -999.00 -999.00 -999.00 -999.00 -999.00
      -999.00 -999.00 -999.00 -999.00 -999.00 -999.00
  73  -999.00 -999.00 -999.00 -999.00 -999.00 -999.00 -999.00 -999.00 -999.00 -999.00 -999.00 -999.00 -999.00 -999.00 -999.00
      -999.00 -999.00 -999.00 -999.00 -999.00 -999.00 -999.00 -999.00 -999.00 -999.00 -999.00 -999.00 -999.00 -999.00 -999.00
      -999.00 -999.00 -999.00 -999.00 -999.00 -999.00 -999.00 -999.00 -999.00 -999.00 -999.00 -999.00 -999.00 -999.00 -999.00
      -999.00 -999.00 -999.00 -999.00 -999.00 -999.00 -999.00 -999.00 -999.00 -999.00 -999.00 -999.00 -999.00 2294.00 2270.00
      2245.00 -999.00 -999.00 -999.00 -999.00 -999.00 -999.00 -999.00 -999.00 -999.00 -999.00 -999.00 -999.00 -999.00 -999.00
      -999.00 -999.00 -999.00 -999.00 -999.00 -999.00

 HEAD WILL BE SAVED ON UNIT   58 AT END OF TIME STEP    1, STRESS PERIOD    1
1
  VOLUMETRIC BUDGET FOR ENTIRE MODEL AT END OF TIME STEP    1, STRESS PERIOD   1
  ------------------------------------------------------------------------------

     CUMULATIVE VOLUMES      L**3       RATES FOR THIS TIME STEP      L**3/T
     ------------------                 ------------------------

           IN:                                      IN:
           ---                                      ---
             STORAGE =           0.0000               STORAGE =           0.0000
       CONSTANT HEAD =           0.0000         CONSTANT HEAD =           0.0000
               WELLS =        1096.0000                 WELLS =        1096.0000
      STREAM LEAKAGE =       18729.3965        STREAM LEAKAGE =       18729.3965
        UZF RECHARGE =       13869.0908          UZF RECHARGE =       13869.0908
               GW ET =           0.0000                 GW ET =           0.0000
     SURFACE LEAKAGE =           0.0000       SURFACE LEAKAGE =           0.0000

            TOTAL IN =       33694.4883              TOTAL IN =       33694.4883

          OUT:                                     OUT:
          ----                                     ----
             STORAGE =           0.0000               STORAGE =           0.0000
       CONSTANT HEAD =        1002.7369         CONSTANT HEAD =        1002.7369
               WELLS =           0.0000                 WELLS =           0.0000
      STREAM LEAKAGE =      171397.8125        STREAM LEAKAGE =      171397.8125
        UZF RECHARGE =           0.0000          UZF RECHARGE =           0.0000
               GW ET =           0.0000                 GW ET =           0.0000
     SURFACE LEAKAGE =           0.0000       SURFACE LEAKAGE =           0.0000

           TOTAL OUT =      172400.5469             TOTAL OUT =      172400.5469

            IN - OUT =     -138706.0625              IN - OUT =     -138706.0625

 PERCENT DISCREPANCY =        -134.60     PERCENT DISCREPANCY =        -134.60






         TIME SUMMARY AT END OF TIME STEP    1 IN STRESS PERIOD    1
                    SECONDS     MINUTES      HOURS       DAYS        YEARS
                    -----------------------------------------------------------
   TIME STEP LENGTH  86400.      1440.0      24.000      1.0000     2.73785E-03
 STRESS PERIOD TIME  86400.      1440.0      24.000      1.0000     2.73785E-03
         TOTAL TIME  86400.      1440.0      24.000      1.0000     2.73785E-03
1
1
                            STRESS PERIOD NO.    2, LENGTH =   5844.000    
                            -----------------------------------------------

                              NUMBER OF TIME STEPS =  5844

                               MULTIPLIER FOR DELT =     1.000

                            INITIAL TIME STEP SIZE =   1.000000    

      5 WELLS
 USING INFILTRATION RATE FROM PREVIOUS STRESS 
 PERIOD.CURRENT PERIOD IS:            2
 
 SOLVING FOR HEAD 

 NO OUTPUT CONTROL FOR STRESS PERIOD    2   TIME STEP    1
 
 SOLVING FOR HEAD 

 NO OUTPUT CONTROL FOR STRESS PERIOD    2   TIME STEP    2
 
 SOLVING FOR HEAD 

 NO OUTPUT CONTROL FOR STRESS PERIOD    2   TIME STEP    3
 
 SOLVING FOR HEAD 

 NO OUTPUT CONTROL FOR STRESS PERIOD    2   TIME STEP    4
 
 SOLVING FOR HEAD 

 NO OUTPUT CONTROL FOR STRESS PERIOD    2   TIME STEP    5
 
 SOLVING FOR HEAD 

 NO OUTPUT CONTROL FOR STRESS PERIOD    2   TIME STEP    6
 
 SOLVING FOR HEAD 

 NO OUTPUT CONTROL FOR STRESS PERIOD    2   TIME STEP    7
 
 SOLVING FOR HEAD 

 NO OUTPUT CONTROL FOR STRESS PERIOD    2   TIME STEP    8
 
 SOLVING FOR HEAD 

 NO OUTPUT CONTROL FOR STRESS PERIOD    2   TIME STEP    9
 
 SOLVING FOR HEAD 

 NO OUTPUT CONTROL FOR STRESS PERIOD    2   TIME STEP   10
 
 SOLVING FOR HEAD 

 NO OUTPUT CONTROL FOR STRESS PERIOD    2   TIME STEP   11
 
 SOLVING FOR HEAD 

 NO OUTPUT CONTROL FOR STRESS PERIOD    2   TIME STEP   12
 
 SOLVING FOR HEAD 

 NO OUTPUT CONTROL FOR STRESS PERIOD    2   TIME STEP   13
 
 SOLVING FOR HEAD 

 NO OUTPUT CONTROL FOR STRESS PERIOD    2   TIME STEP   14
 
 SOLVING FOR HEAD 

 NO OUTPUT CONTROL FOR STRESS PERIOD    2   TIME STEP   15
 
 SOLVING FOR HEAD 

 NO OUTPUT CONTROL FOR STRESS PERIOD    2   TIME STEP   16
 
 SOLVING FOR HEAD 

 NO OUTPUT CONTROL FOR STRESS PERIOD    2   TIME STEP   17
 
 SOLVING FOR HEAD 

 NO OUTPUT CONTROL FOR STRESS PERIOD    2   TIME STEP   18
 
 SOLVING FOR HEAD 

 NO OUTPUT CONTROL FOR STRESS PERIOD    2   TIME STEP   19
 
 SOLVING FOR HEAD 

 NO OUTPUT CONTROL FOR STRESS PERIOD    2   TIME STEP   20
 
 SOLVING FOR HEAD 

 NO OUTPUT CONTROL FOR STRESS PERIOD    2   TIME STEP   21
 
 SOLVING FOR HEAD 

 NO OUTPUT CONTROL FOR STRESS PERIOD    2   TIME STEP   22
 
 SOLVING FOR HEAD 

 NO OUTPUT CONTROL FOR STRESS PERIOD    2   TIME STEP   23
 
 SOLVING FOR HEAD 

 NO OUTPUT CONTROL FOR STRESS PERIOD    2   TIME STEP   24
 
 SOLVING FOR HEAD 

 NO OUTPUT CONTROL FOR STRESS PERIOD    2   TIME STEP   25
 
 SOLVING FOR HEAD 

 NO OUTPUT CONTROL FOR STRESS PERIOD    2   TIME STEP   26
 
 SOLVING FOR HEAD 

 NO OUTPUT CONTROL FOR STRESS PERIOD    2   TIME STEP   27
 
 SOLVING FOR HEAD 

 OUTPUT CONTROL FOR STRESS PERIOD    2   TIME STEP   28
    PRINT BUDGET



 STREAM LISTING     PERIOD      2   STEP       28

 LAYER ROW COL. STREAM  RCH.   FLOW INTO    STREAM     FLOW OUT OF   OVRLND.    DIRECT     STREAM      STREAM      STREAM     STREAM  STREAMBED   FLOW TO   CHNG. UNSAT. 
                SEG.NO.  NO.   STRM. RCH.    LOSS       STRM. RCH.   RUNOFF     PRECIP       ET         HEAD        DEPTH      WIDTH  CONDCTNC.   WAT. TAB.

   1   39   15     1     1    0.0000E+00 -3.7950E+03   3.7950E+03  0.000E+00  0.000E+00  0.000E+00  2.35652E+03  1.963E-02  3.000E+00  1.530E+03  0.000E+00  0.000E+00
   1   39   16     1     2    3.7950E+03  3.5470E+02   3.4403E+03  0.000E+00  0.000E+00  0.000E+00  2.35253E+03  2.548E-02  3.000E+00  6.750E+02  0.000E+00  0.000E+00
   1   39   17     1     3    3.4403E+03 -4.2866E+02   3.8689E+03  0.000E+00  0.000E+00  0.000E+00  2.34552E+03  2.372E-02  3.000E+00  9.000E+02  0.000E+00  0.000E+00
   1   38   17     1     4    3.8689E+03 -6.6331E+02   4.5322E+03  0.000E+00  0.000E+00  0.000E+00  2.34253E+03  2.597E-02  3.000E+00  4.500E+02  0.000E+00  0.000E+00
   1   38   18     1     5    4.5322E+03 -7.1783E+02   5.2501E+03  0.000E+00  0.000E+00  0.000E+00  2.33653E+03  3.083E-02  3.000E+00  1.530E+03  0.000E+00  0.000E+00
   1   38   19     1     6    5.2501E+03  3.5847E+02   4.8916E+03  0.000E+00  0.000E+00  0.000E+00  2.33253E+03  3.106E-02  3.000E+00  6.750E+02  0.000E+00  0.000E+00
   1   38   20     1     7    4.8916E+03 -1.9833E+03   6.8749E+03  0.000E+00  0.000E+00  0.000E+00  2.32453E+03  3.090E-02  3.000E+00  1.350E+03  0.000E+00  0.000E+00
   1   38   21     1     8    6.8749E+03 -1.9766E+03   8.8515E+03  0.000E+00  0.000E+00  0.000E+00  2.31654E+03  3.584E-02  3.000E+00  1.350E+03  0.000E+00  0.000E+00
   1   38   22     1     9    8.8515E+03 -2.2385E+03   1.1090E+04  0.000E+00  0.000E+00  0.000E+00  2.30654E+03  3.694E-02  3.000E+00  1.530E+03  0.000E+00  0.000E+00
   1   38   23     1    10    1.1090E+04 -8.3478E+03   1.9438E+04  0.000E+00  0.000E+00  0.000E+00  2.28854E+03  4.389E-02  3.000E+00  1.530E+03  0.000E+00  0.000E+00
   1   37   24     1    11    1.9438E+04 -6.9008E+02   2.0128E+04  0.000E+00  0.000E+00  0.000E+00  2.26855E+03  4.897E-02  3.000E+00  1.530E+03  0.000E+00  0.000E+00
   1   37   25     1    12    2.0128E+04 -6.9600E+03   2.7088E+04  0.000E+00  0.000E+00  0.000E+00  2.24756E+03  5.554E-02  3.000E+00  1.080E+03  0.000E+00  0.000E+00
   1   36   25     1    13    2.7088E+04 -3.3470E+03   3.0435E+04  0.000E+00  0.000E+00  0.000E+00  2.24056E+03  6.226E-02  3.000E+00  4.500E+02  0.000E+00  0.000E+00
   1   36   26     1    14    3.0435E+04 -5.8665E+03   3.6301E+04  0.000E+00  0.000E+00  0.000E+00  2.22657E+03  6.806E-02  3.000E+00  1.080E+03  0.000E+00  0.000E+00
   1   35   26     1    15    3.6301E+04 -1.9885E+03   3.8290E+04  0.000E+00  0.000E+00  0.000E+00  2.21958E+03  8.101E-02  3.000E+00  4.500E+02  0.000E+00  0.000E+00
   1   35   27     1    16    3.8290E+04 -5.6409E+02   3.8854E+04  0.000E+00  0.000E+00  0.000E+00  2.21058E+03  8.215E-02  3.000E+00  1.350E+03  0.000E+00  0.000E+00
   1   36   28     1    17    3.8854E+04 -6.3485E+02   3.9489E+04  0.000E+00  0.000E+00  0.000E+00  2.19658E+03  8.506E-02  3.000E+00  1.530E+03  0.000E+00  0.000E+00
   1   36   29     1    18    3.9489E+04 -5.5753E+02   4.0046E+04  0.000E+00  0.000E+00  0.000E+00  2.18459E+03  8.702E-02  3.000E+00  1.350E+03  0.000E+00  0.000E+00
   1   36   30     1    19    4.0046E+04 -5.5513E+02   4.0602E+04  0.000E+00  0.000E+00  0.000E+00  2.17259E+03  8.879E-02  3.000E+00  1.350E+03  0.000E+00  0.000E+00
   1   36   31     1    20    4.0602E+04  4.4862E+02   4.0153E+04  0.000E+00  0.000E+00  0.000E+00  2.16159E+03  8.643E-02  3.000E+00  7.650E+02  0.000E+00  0.000E+00
   1   36   32     1    21    4.0153E+04 -1.8817E+02   4.0341E+04  0.000E+00  0.000E+00  0.000E+00  2.15058E+03  8.185E-02  3.000E+00  4.500E+02  0.000E+00  0.000E+00
   1   35   32     1    22    4.0341E+04 -4.7657E+03   4.5107E+04  0.000E+00  0.000E+00  0.000E+00  2.14259E+03  8.735E-02  3.000E+00  1.080E+03  0.000E+00  0.000E+00
   1   35   33     1    23    4.5107E+04 -1.8514E+02   4.5292E+04  0.000E+00  0.000E+00  0.000E+00  2.13559E+03  8.859E-02  3.000E+00  4.500E+02  0.000E+00  0.000E+00
   1   34   33     1    24    4.5292E+04 -3.6799E+03   4.8972E+04  0.000E+00  0.000E+00  0.000E+00  2.12659E+03  9.265E-02  3.000E+00  1.080E+03  0.000E+00  0.000E+00
   1   34   34     1    25    4.8972E+04 -1.7903E+02   4.9151E+04  0.000E+00  0.000E+00  0.000E+00  2.12060E+03  1.022E-01  3.000E+00  4.500E+02  0.000E+00  0.000E+00
   1   33   34     1    26    4.9151E+04 -3.5823E+02   4.9509E+04  0.000E+00  0.000E+00  0.000E+00  2.11560E+03  1.020E-01  3.000E+00  9.000E+02  0.000E+00  0.000E+00
   1   33   35     1    27    4.9509E+04 -4.2759E+02   4.9937E+04  0.000E+00  0.000E+00  0.000E+00  2.10760E+03  1.041E-01  3.000E+00  1.080E+03  0.000E+00  0.000E+00
   1   32   35     1    28    4.9937E+04 -6.2895E+02   5.0566E+04  0.000E+00  0.000E+00  0.000E+00  2.10260E+03  1.023E-01  3.000E+00  4.500E+02  0.000E+00  0.000E+00
   1   32   36     1    29    5.0566E+04 -5.9793E+02   5.1164E+04  0.000E+00  0.000E+00  0.000E+00  2.09361E+03  1.092E-01  3.000E+00  1.530E+03  0.000E+00  0.000E+00
   1   32   37     1    30    5.1164E+04 -5.1242E+02   5.1676E+04  0.000E+00  0.000E+00  0.000E+00  2.08662E+03  1.204E-01  3.000E+00  1.350E+03  0.000E+00  0.000E+00
   1   53   37     2     1    0.0000E+00 -6.6531E+02   6.6531E+02  0.000E+00  0.000E+00  0.000E+00  2.14751E+03  7.175E-03  3.000E+00  1.350E+03  0.000E+00  0.000E+00
   1   52   37     2     2    6.6531E+02  2.7507E+02   3.9024E+02  0.000E+00  0.000E+00  0.000E+00  2.14451E+03  9.389E-03  3.000E+00  5.400E+02  0.000E+00  0.000E+00
   1   52   38     2     3    3.9024E+02 -6.7054E+02   1.0608E+03  0.000E+00  0.000E+00  0.000E+00  2.14251E+03  9.908E-03  3.000E+00  4.500E+02  0.000E+00  0.000E+00
   1   51   38     2     4    1.0608E+03 -7.4063E+02   1.8014E+03  0.000E+00  0.000E+00  0.000E+00  2.13752E+03  1.593E-02  3.000E+00  1.530E+03  0.000E+00  0.000E+00
   1   50   38     2     5    1.8014E+03 -4.2833E+02   2.2297E+03  0.000E+00  0.000E+00  0.000E+00  2.13552E+03  2.408E-02  3.000E+00  9.000E+02  0.000E+00  0.000E+00
   1   50   39     2     6    2.2297E+03 -2.1381E+02   2.4436E+03  0.000E+00  0.000E+00  0.000E+00  2.13452E+03  2.486E-02  3.000E+00  4.500E+02  0.000E+00  0.000E+00
   1   49   39     2     7    2.4436E+03  3.5350E+02   2.0901E+03  0.000E+00  0.000E+00  0.000E+00  2.13252E+03  2.370E-02  3.000E+00  6.750E+02  0.000E+00  0.000E+00
   1   48   39     2     8    2.0901E+03  3.9942E+02   1.6906E+03  0.000E+00  0.000E+00  0.000E+00  2.12952E+03  2.212E-02  3.000E+00  7.650E+02  0.000E+00  0.000E+00
   1   47   39     2     9    1.6906E+03  2.3434E+02   1.4563E+03  0.000E+00  0.000E+00  0.000E+00  2.12752E+03  2.075E-02  3.000E+00  4.500E+02  0.000E+00  0.000E+00
   1   47   40     2    10    1.4563E+03 -6.6547E+02   2.1218E+03  0.000E+00  0.000E+00  0.000E+00  2.12652E+03  2.118E-02  3.000E+00  4.500E+02  0.000E+00  0.000E+00
   1   46   40     2    11    2.1218E+03 -6.4184E+02   2.7636E+03  0.000E+00  0.000E+00  0.000E+00  2.12452E+03  2.456E-02  3.000E+00  1.350E+03  0.000E+00  0.000E+00
   1   45   40     2    12    2.7636E+03 -6.6279E+02   3.4264E+03  0.000E+00  0.000E+00  0.000E+00  2.12253E+03  2.713E-02  3.000E+00  4.500E+02  0.000E+00  0.000E+00
   1   45   39     2    13    3.4264E+03 -1.3196E+03   4.7460E+03  0.000E+00  0.000E+00  0.000E+00  2.12053E+03  3.375E-02  3.000E+00  9.000E+02  0.000E+00  0.000E+00
   1   44   39     2    14    4.7460E+03  4.0863E+02   4.3374E+03  0.000E+00  0.000E+00  0.000E+00  2.11853E+03  3.415E-02  3.000E+00  7.650E+02  0.000E+00  0.000E+00
   1   43   38     2    15    4.3374E+03  4.0511E+02   3.9323E+03  0.000E+00  0.000E+00  0.000E+00  2.11353E+03  2.956E-02  3.000E+00  7.650E+02  0.000E+00  0.000E+00
   1   42   38     2    16    3.9323E+03 -6.3343E+02   4.5657E+03  0.000E+00  0.000E+00  0.000E+00  2.10853E+03  3.079E-02  3.000E+00  1.350E+03  0.000E+00  0.000E+00
   1   41   38     2    17    4.5657E+03 -7.0973E+02   5.2755E+03  0.000E+00  0.000E+00  0.000E+00  2.10454E+03  3.612E-02  3.000E+00  1.530E+03  0.000E+00  0.000E+00
   1   40   38     2    18    5.2755E+03 -2.1038E+02   5.4858E+03  0.000E+00  0.000E+00  0.000E+00  2.10253E+03  3.249E-02  3.000E+00  4.500E+02  0.000E+00  0.000E+00
   1   40   39     2    19    5.4858E+03 -4.9131E+03   1.0399E+04  0.000E+00  0.000E+00  0.000E+00  2.09754E+03  4.104E-02  3.000E+00  9.000E+02  0.000E+00  0.000E+00
   1   39   39     2    20    1.0399E+04  4.2181E+02   9.9771E+03  0.000E+00  0.000E+00  0.000E+00  2.09455E+03  5.139E-02  3.000E+00  7.650E+02  0.000E+00  0.000E+00
   1   38   39     2    21    9.9771E+03 -2.2204E+03   1.2197E+04  0.000E+00  0.000E+00  0.000E+00  2.08855E+03  4.879E-02  3.000E+00  1.530E+03  0.000E+00  0.000E+00
   1   37   40     2    22    1.2197E+04 -6.8723E+02   1.2885E+04  0.000E+00  0.000E+00  0.000E+00  2.08055E+03  5.083E-02  3.000E+00  1.530E+03  0.000E+00  0.000E+00
   1   36   40     2    23    1.2885E+04 -2.1981E+03   1.5083E+04  0.000E+00  0.000E+00  0.000E+00  2.07456E+03  5.763E-02  3.000E+00  9.000E+02  0.000E+00  0.000E+00
   1   36   41     2    24    1.5083E+04 -6.4460E+02   1.5727E+04  0.000E+00  0.000E+00  0.000E+00  2.07257E+03  6.756E-02  3.000E+00  4.500E+02  0.000E+00  0.000E+00
   1   35   41     2    25    1.5727E+04 -6.5263E+02   1.6380E+04  0.000E+00  0.000E+00  0.000E+00  2.06957E+03  7.344E-02  3.000E+00  1.530E+03  0.000E+00  0.000E+00
   1   34   41     2    26    1.6380E+04  3.8512E+02   1.5995E+04  0.000E+00  0.000E+00  0.000E+00  2.06657E+03  7.055E-02  3.000E+00  6.750E+02  0.000E+00  0.000E+00
   1   33   41     2    27    1.5995E+04  3.8292E+02   1.5612E+04  0.000E+00  0.000E+00  0.000E+00  2.06157E+03  6.729E-02  3.000E+00  6.750E+02  0.000E+00  0.000E+00
   1   32   41     2    28    1.5612E+04 -6.6509E+02   1.6277E+04  0.000E+00  0.000E+00  0.000E+00  2.05757E+03  6.530E-02  3.000E+00  1.530E+03  0.000E+00  0.000E+00
   1   31   42     2    29    1.6277E+04 -7.4660E+02   1.7024E+04  0.000E+00  0.000E+00  0.000E+00  2.04956E+03  6.339E-02  3.000E+00  1.710E+03  0.000E+00  0.000E+00
   1   31   33     3     1    0.0000E+00 -3.3536E+03   3.3536E+03  0.000E+00  0.000E+00  0.000E+00  2.11652E+03  1.585E-02  3.000E+00  1.350E+03  0.000E+00  0.000E+00
   1   31   34     3     2    3.3536E+03  3.5182E+02   3.0018E+03  0.000E+00  0.000E+00  0.000E+00  2.11052E+03  2.121E-02  3.000E+00  6.750E+02  0.000E+00  0.000E+00
   1   31   35     3     3    3.0018E+03 -7.3139E+02   3.7332E+03  0.000E+00  0.000E+00  0.000E+00  2.09952E+03  2.196E-02  3.000E+00  1.530E+03  0.000E+00  0.000E+00
   1   31   36     3     4    3.7332E+03 -2.2499E+03   5.9831E+03  0.000E+00  0.000E+00  0.000E+00  2.09253E+03  2.948E-02  3.000E+00  1.530E+03  0.000E+00  0.000E+00
   1   31   37     3     5    5.9831E+03 -6.2888E+02   6.6120E+03  0.000E+00  0.000E+00  0.000E+00  2.08553E+03  3.416E-02  3.000E+00  1.350E+03  0.000E+00  0.000E+00
   1   48   48     4     1    0.0000E+00 -2.0028E+03   2.0028E+03  0.000E+00  0.000E+00  0.000E+00  2.11352E+03  1.647E-02  3.000E+00  1.350E+03  0.000E+00  0.000E+00
   1   47   48     4     2    2.0028E+03 -7.2743E+02   2.7302E+03  0.000E+00  0.000E+00  0.000E+00  2.11152E+03  2.455E-02  3.000E+00  1.530E+03  0.000E+00  0.000E+00
   1   46   48     4     3    2.7302E+03 -6.6347E+02   3.3937E+03  0.000E+00  0.000E+00  0.000E+00  2.10953E+03  2.563E-02  3.000E+00  4.500E+02  0.000E+00  0.000E+00
   1   46   47     4     4    3.3937E+03 -1.3200E+03   4.7137E+03  0.000E+00  0.000E+00  0.000E+00  2.10753E+03  3.328E-02  3.000E+00  9.000E+02  0.000E+00  0.000E+00
   1   45   47     4     5    4.7137E+03  3.6247E+02   4.3512E+03  0.000E+00  0.000E+00  0.000E+00  2.10554E+03  3.699E-02  3.000E+00  6.750E+02  0.000E+00  0.000E+00
   1   44   47     4     6    4.3512E+03  4.0651E+02   3.9447E+03  0.000E+00  0.000E+00  0.000E+00  2.10253E+03  3.139E-02  3.000E+00  7.650E+02  0.000E+00  0.000E+00
   1   43   47     4     7    3.9447E+03 -1.9855E+03   5.9302E+03  0.000E+00  0.000E+00  0.000E+00  2.09753E+03  2.928E-02  3.000E+00  1.350E+03  0.000E+00  0.000E+00
   1   42   47     4     8    5.9302E+03 -3.3285E+03   9.2587E+03  0.000E+00  0.000E+00  0.000E+00  2.08853E+03  3.447E-02  3.000E+00  1.350E+03  0.000E+00  0.000E+00
   1   41   47     4     9    9.2587E+03 -1.3123E+03   1.0571E+04  0.000E+00  0.000E+00  0.000E+00  2.08054E+03  4.185E-02  3.000E+00  9.000E+02  0.000E+00  0.000E+00
   1   41   48     4    10    1.0571E+04 -1.1050E+03   1.1676E+04  0.000E+00  0.000E+00  0.000E+00  2.07754E+03  4.441E-02  3.000E+00  4.500E+02  0.000E+00  0.000E+00
   1   40   48     4    11    1.1676E+04 -6.1064E+02   1.2287E+04  0.000E+00  0.000E+00  0.000E+00  2.07055E+03  4.768E-02  3.000E+00  1.350E+03  0.000E+00  0.000E+00
   1   39   48     4    12    1.2287E+04 -4.6515E+03   1.6938E+04  0.000E+00  0.000E+00  0.000E+00  2.06455E+03  5.447E-02  3.000E+00  1.350E+03  0.000E+00  0.000E+00
   1   38   47     4    13    1.6938E+04  3.7594E+02   1.6562E+04  0.000E+00  0.000E+00  0.000E+00  2.05556E+03  5.695E-02  3.000E+00  6.750E+02  0.000E+00  0.000E+00
   1   37   47     4    14    1.6562E+04 -5.9967E+02   1.7162E+04  0.000E+00  0.000E+00  0.000E+00  2.04756E+03  5.580E-02  3.000E+00  1.350E+03  0.000E+00  0.000E+00
   1   36   48     4    15    1.7162E+04 -6.7525E+02   1.7837E+04  0.000E+00  0.000E+00  0.000E+00  2.03656E+03  5.866E-02  3.000E+00  1.530E+03  0.000E+00  0.000E+00
   1   35   48     4    16    1.7837E+04 -1.9708E+02   1.8034E+04  0.000E+00  0.000E+00  0.000E+00  2.03256E+03  6.205E-02  3.000E+00  4.500E+02  0.000E+00  0.000E+00
   1   35   49     4    17    1.8034E+04 -3.9690E+02   1.8431E+04  0.000E+00  0.000E+00  0.000E+00  2.02756E+03  5.900E-02  3.000E+00  9.000E+02  0.000E+00  0.000E+00
   1   34   49     4    18    1.8431E+04 -1.5491E+03   1.9980E+04  0.000E+00  0.000E+00  0.000E+00  2.02157E+03  6.564E-02  3.000E+00  1.080E+03  0.000E+00  0.000E+00
   1   34   50     4    19    1.9980E+04 -6.4158E+02   2.0622E+04  0.000E+00  0.000E+00  0.000E+00  2.01857E+03  7.427E-02  3.000E+00  4.500E+02  0.000E+00  0.000E+00
   1   33   50     4    20    2.0622E+04  4.9148E+02   2.0130E+04  0.000E+00  0.000E+00  0.000E+00  2.01457E+03  7.483E-02  3.000E+00  8.550E+02  0.000E+00  0.000E+00
   1   55   72     5     1    0.0000E+00 -3.3507E+03   3.3507E+03  0.000E+00  0.000E+00  0.000E+00  2.00152E+03  1.797E-02  3.000E+00  1.350E+03  0.000E+00  0.000E+00
   1   54   72     5     2    3.3507E+03 -6.3763E+02   3.9884E+03  0.000E+00  0.000E+00  0.000E+00  1.99753E+03  2.768E-02  3.000E+00  1.350E+03  0.000E+00  0.000E+00
   1   53   72     5     3    3.9884E+03  3.5442E+02   3.6340E+03  0.000E+00  0.000E+00  0.000E+00  1.99253E+03  2.507E-02  3.000E+00  6.750E+02  0.000E+00  0.000E+00
   1   52   72     5     4    3.6340E+03 -7.2569E+02   4.3596E+03  0.000E+00  0.000E+00  0.000E+00  1.98353E+03  2.569E-02  3.000E+00  1.530E+03  0.000E+00  0.000E+00
   1   51   72     5     5    4.3596E+03  4.0279E+02   3.9569E+03  0.000E+00  0.000E+00  0.000E+00  1.97753E+03  2.652E-02  3.000E+00  7.650E+02  0.000E+00  0.000E+00
   1   50   73     5     6    3.9569E+03 -7.2349E+02   4.6803E+03  0.000E+00  0.000E+00  0.000E+00  1.96853E+03  2.713E-02  3.000E+00  1.530E+03  0.000E+00  0.000E+00
   1   49   73     5     7    4.6803E+03 -7.1889E+02   5.3992E+03  0.000E+00  0.000E+00  0.000E+00  1.96253E+03  3.014E-02  3.000E+00  1.530E+03  0.000E+00  0.000E+00
   1   48   73     5     8    5.3992E+03 -2.1076E+02   5.6100E+03  0.000E+00  0.000E+00  0.000E+00  1.95653E+03  3.164E-02  3.000E+00  4.500E+02  0.000E+00  0.000E+00
   1   48   74     5     9    5.6100E+03 -2.2154E+03   7.8254E+03  0.000E+00  0.000E+00  0.000E+00  1.95454E+03  3.845E-02  3.000E+00  9.000E+02  0.000E+00  0.000E+00
   1   47   74     5    10    7.8254E+03 -7.0017E+02   8.5255E+03  0.000E+00  0.000E+00  0.000E+00  1.94954E+03  4.238E-02  3.000E+00  1.530E+03  0.000E+00  0.000E+00
   1   46   75     5    11    8.5255E+03  4.1752E+02   8.1080E+03  0.000E+00  0.000E+00  0.000E+00  1.94355E+03  4.578E-02  3.000E+00  7.650E+02  0.000E+00  0.000E+00
   1   45   75     5    12    8.1080E+03  1.2294E+02   7.9851E+03  0.000E+00  0.000E+00  0.000E+00  1.94155E+03  4.639E-02  3.000E+00  2.250E+02  0.000E+00  0.000E+00
   1   45   76     5    13    7.9851E+03  2.9371E+02   7.6914E+03  0.000E+00  0.000E+00  0.000E+00  1.93854E+03  4.391E-02  3.000E+00  5.400E+02  0.000E+00  0.000E+00
   1   44   76     5    14    7.6914E+03  1.2291E+02   7.5685E+03  0.000E+00  0.000E+00  0.000E+00  1.93655E+03  4.626E-02  3.000E+00  2.250E+02  0.000E+00  0.000E+00
   1   45   62     6     1    0.0000E+00 -2.0069E+03   2.0069E+03  0.000E+00  0.000E+00  0.000E+00  2.00451E+03  1.340E-02  3.000E+00  1.350E+03  0.000E+00  0.000E+00
   1   44   62     6     2    2.0069E+03 -7.3348E+02   2.7404E+03  0.000E+00  0.000E+00  0.000E+00  1.99952E+03  2.060E-02  3.000E+00  1.530E+03  0.000E+00  0.000E+00
   1   43   62     6     3    2.7404E+03  1.1696E+02   2.6234E+03  0.000E+00  0.000E+00  0.000E+00  1.99552E+03  1.984E-02  3.000E+00  2.250E+02  0.000E+00  0.000E+00
   1   43   63     6     4    2.6234E+03 -1.3290E+03   3.9524E+03  0.000E+00  0.000E+00  0.000E+00  1.99152E+03  2.333E-02  3.000E+00  9.000E+02  0.000E+00  0.000E+00
   1   42   63     6     5    3.9524E+03 -7.2245E+02   4.6749E+03  0.000E+00  0.000E+00  0.000E+00  1.98553E+03  2.781E-02  3.000E+00  1.530E+03  0.000E+00  0.000E+00
   1   41   63     6     6    4.6749E+03  3.5675E+02   4.3181E+03  0.000E+00  0.000E+00  0.000E+00  1.97953E+03  2.851E-02  3.000E+00  6.750E+02  0.000E+00  0.000E+00
   1   40   63     6     7    4.3181E+03 -7.2033E+02   5.0385E+03  0.000E+00  0.000E+00  0.000E+00  1.97353E+03  2.920E-02  3.000E+00  1.530E+03  0.000E+00  0.000E+00
   1   24   55     7     1    0.0000E+00 -2.2373E+03   2.2373E+03  0.000E+00  0.000E+00  0.000E+00  2.03351E+03  1.410E-02  3.000E+00  9.000E+02  0.000E+00  0.000E+00
   1   25   55     7     2    2.2373E+03  1.1649E+02   2.1208E+03  0.000E+00  0.000E+00  0.000E+00  2.03152E+03  1.772E-02  3.000E+00  2.250E+02  0.000E+00  0.000E+00
   1   25   56     7     3    2.1208E+03 -1.3310E+03   3.4518E+03  0.000E+00  0.000E+00  0.000E+00  2.02652E+03  2.112E-02  3.000E+00  9.000E+02  0.000E+00  0.000E+00
   1   26   56     7     4    3.4518E+03 -7.2193E+02   4.1737E+03  0.000E+00  0.000E+00  0.000E+00  2.02253E+03  2.815E-02  3.000E+00  1.530E+03  0.000E+00  0.000E+00
   1   27   56     7     5    4.1737E+03 -6.3379E+02   4.8075E+03  0.000E+00  0.000E+00  0.000E+00  2.01753E+03  3.053E-02  3.000E+00  1.350E+03  0.000E+00  0.000E+00
   1   28   57     7     6    4.8075E+03 -6.3088E+02   5.4384E+03  0.000E+00  0.000E+00  0.000E+00  2.01253E+03  3.268E-02  3.000E+00  1.350E+03  0.000E+00  0.000E+00
   1   29   57     7     7    5.4384E+03 -6.2770E+02   6.0661E+03  0.000E+00  0.000E+00  0.000E+00  2.00754E+03  3.504E-02  3.000E+00  1.350E+03  0.000E+00  0.000E+00
   1   30   57     7     8    6.0661E+03 -6.2294E+02   6.6890E+03  0.000E+00  0.000E+00  0.000E+00  2.00254E+03  3.856E-02  3.000E+00  1.350E+03  0.000E+00  0.000E+00
   1   31   57     7     9    6.6890E+03 -6.1928E+02   7.3083E+03  0.000E+00  0.000E+00  0.000E+00  1.99854E+03  4.128E-02  3.000E+00  1.350E+03  0.000E+00  0.000E+00
   1   32   57     7    10    7.3083E+03 -6.9352E+02   8.0018E+03  0.000E+00  0.000E+00  0.000E+00  1.99355E+03  4.672E-02  3.000E+00  1.530E+03  0.000E+00  0.000E+00
   1   33   57     7    11    8.0018E+03  3.0018E+02   7.7017E+03  0.000E+00  0.000E+00  0.000E+00  1.99156E+03  5.589E-02  3.000E+00  5.400E+02  0.000E+00  0.000E+00
   1   33   58     7    12    7.7017E+03 -2.0529E+02   7.9070E+03  0.000E+00  0.000E+00  0.000E+00  1.99054E+03  4.379E-02  3.000E+00  4.500E+02  0.000E+00  0.000E+00
   1   34   58     7    13    7.9070E+03 -4.9408E+02   8.4010E+03  0.000E+00  0.000E+00  0.000E+00  1.98654E+03  4.252E-02  3.000E+00  1.080E+03  0.000E+00  0.000E+00
   1   34   59     7    14    8.4010E+03 -6.5308E+02   9.0541E+03  0.000E+00  0.000E+00  0.000E+00  1.98455E+03  4.870E-02  3.000E+00  4.500E+02  0.000E+00  0.000E+00
   1   35   59     7    15    9.0541E+03  4.2006E+02   8.6341E+03  0.000E+00  0.000E+00  0.000E+00  1.98155E+03  4.909E-02  3.000E+00  7.650E+02  0.000E+00  0.000E+00
   1   36   59     7    16    8.6341E+03  3.6930E+02   8.2648E+03  0.000E+00  0.000E+00  0.000E+00  1.97755E+03  4.712E-02  3.000E+00  6.750E+02  0.000E+00  0.000E+00
   1   37   60     7    17    8.2648E+03 -2.4807E+03   1.0745E+04  0.000E+00  0.000E+00  0.000E+00  1.97255E+03  4.929E-02  3.000E+00  1.710E+03  0.000E+00  0.000E+00
   1   23   71     8     1    0.0000E+00  0.0000E+00   0.0000E+00  0.000E+00  0.000E+00  0.000E+00  2.05250E+03  0.000E+00  3.000E+00  6.750E+02  0.000E+00  0.000E+00
   1   24   71     8     2    0.0000E+00 -7.5254E+02   7.5254E+02  0.000E+00  0.000E+00  0.000E+00  2.04851E+03  8.146E-03  3.000E+00  1.530E+03  0.000E+00  0.000E+00
   1   25   71     8     3    7.5254E+02  3.4619E+02   4.0635E+02  0.000E+00  0.000E+00  0.000E+00  2.04651E+03  1.287E-02  3.000E+00  6.750E+02  0.000E+00  0.000E+00
   1   26   71     8     4    4.0635E+02 -7.3799E+02   1.1443E+03  0.000E+00  0.000E+00  0.000E+00  2.04552E+03  1.765E-02  3.000E+00  1.530E+03  0.000E+00  0.000E+00
   1   27   72     8     5    1.1443E+03 -7.2689E+02   1.8712E+03  0.000E+00  0.000E+00  0.000E+00  2.04452E+03  2.491E-02  3.000E+00  1.530E+03  0.000E+00  0.000E+00
   1   27   73     8     6    1.8712E+03 -2.0096E+03   3.8808E+03  0.000E+00  0.000E+00  0.000E+00  2.04353E+03  3.432E-02  3.000E+00  4.500E+02  0.000E+00  0.000E+00
   1   28   73     8     7    3.8808E+03 -2.2169E+03   6.0977E+03  0.000E+00  0.000E+00  0.000E+00  2.04255E+03  5.106E-02  3.000E+00  1.530E+03  0.000E+00  0.000E+00
   1   29   73     8     8    6.0977E+03 -3.2829E+03   9.3806E+03  0.000E+00  0.000E+00  0.000E+00  2.04157E+03  6.821E-02  3.000E+00  1.350E+03  0.000E+00  0.000E+00
   1   30   73     8     9    9.3806E+03 -1.9360E+03   1.1317E+04  0.000E+00  0.000E+00  0.000E+00  2.04057E+03  6.596E-02  3.000E+00  1.350E+03  0.000E+00  0.000E+00
   1   31   73     8    10    1.1317E+04 -5.9749E+02   1.1914E+04  0.000E+00  0.000E+00  0.000E+00  2.03756E+03  5.742E-02  3.000E+00  1.350E+03  0.000E+00  0.000E+00
   1   32   73     8    11    1.1914E+04 -1.9483E+03   1.3862E+04  0.000E+00  0.000E+00  0.000E+00  2.03256E+03  5.685E-02  3.000E+00  1.350E+03  0.000E+00  0.000E+00
   1   33   73     8    12    1.3862E+04 -3.2910E+03   1.7153E+04  0.000E+00  0.000E+00  0.000E+00  2.02756E+03  6.222E-02  3.000E+00  1.350E+03  0.000E+00  0.000E+00
   1   34   73     8    13    1.7153E+04 -1.1000E+03   1.8253E+04  0.000E+00  0.000E+00  0.000E+00  2.02356E+03  5.557E-02  3.000E+00  4.500E+02  0.000E+00  0.000E+00
   1   34   74     8    14    1.8253E+04 -2.1951E+03   2.0448E+04  0.000E+00  0.000E+00  0.000E+00  2.01556E+03  6.096E-02  3.000E+00  9.000E+02  0.000E+00  0.000E+00
   1   35   74     8    15    2.0448E+04  3.8519E+02   2.0063E+04  0.000E+00  0.000E+00  0.000E+00  2.01157E+03  7.066E-02  3.000E+00  6.750E+02  0.000E+00  0.000E+00
   1   36   74     8    16    2.0063E+04 -1.0952E+03   2.1158E+04  0.000E+00  0.000E+00  0.000E+00  2.00657E+03  6.625E-02  3.000E+00  4.500E+02  0.000E+00  0.000E+00
   1   36   73     8    17    2.1158E+04 -3.9931E+03   2.5152E+04  0.000E+00  0.000E+00  0.000E+00  2.00256E+03  6.320E-02  3.000E+00  9.000E+02  0.000E+00  0.000E+00
   1   37   73     8    18    2.5152E+04 -6.7788E+03   3.1930E+04  0.000E+00  0.000E+00  0.000E+00  1.99057E+03  6.943E-02  3.000E+00  1.530E+03  0.000E+00  0.000E+00
   1   38   72     8    19    3.1930E+04  3.9019E+02   3.1540E+04  0.000E+00  0.000E+00  0.000E+00  1.97758E+03  7.806E-02  3.000E+00  6.750E+02  0.000E+00  0.000E+00
   1   39   72     8    20    3.1540E+04  3.9246E+02   3.1148E+04  0.000E+00  0.000E+00  0.000E+00  1.96858E+03  8.142E-02  3.000E+00  6.750E+02  0.000E+00  0.000E+00
   1   40   72     8    21    3.1148E+04 -5.5857E+02   3.1706E+04  0.000E+00  0.000E+00  0.000E+00  1.95959E+03  8.624E-02  3.000E+00  1.350E+03  0.000E+00  0.000E+00
   1   41   72     8    22    3.1706E+04  3.9499E+02   3.1311E+04  0.000E+00  0.000E+00  0.000E+00  1.95359E+03  8.516E-02  3.000E+00  6.750E+02  0.000E+00  0.000E+00
   1   42   72     8    23    3.1311E+04 -1.8832E+02   3.1500E+04  0.000E+00  0.000E+00  0.000E+00  1.94658E+03  8.152E-02  3.000E+00  4.500E+02  0.000E+00  0.000E+00
   1   42   73     8    24    3.1500E+04  1.3319E+02   3.1366E+04  0.000E+00  0.000E+00  0.000E+00  1.94459E+03  9.197E-02  3.000E+00  2.250E+02  0.000E+00  0.000E+00
   1   31   38     9     1    5.8288E+04 -1.8334E+03   6.0121E+04  0.000E+00  0.000E+00  0.000E+00  2.07764E+03  1.419E-01  3.000E+00  1.350E+03  0.000E+00  0.000E+00
   1   31   39     9     2    6.0121E+04 -5.0275E+02   6.0624E+04  0.000E+00  0.000E+00  0.000E+00  2.07263E+03  1.276E-01  3.000E+00  1.350E+03  0.000E+00  0.000E+00
   1   31   40     9     3    6.0624E+04 -5.1129E+02   6.1135E+04  0.000E+00  0.000E+00  0.000E+00  2.06262E+03  1.213E-01  3.000E+00  1.350E+03  0.000E+00  0.000E+00
   1   31   41     9     4    6.1135E+04 -4.9636E+02   6.1632E+04  0.000E+00  0.000E+00  0.000E+00  2.05463E+03  1.323E-01  3.000E+00  1.350E+03  0.000E+00  0.000E+00
   1   31   42     9     5    6.1632E+04 -3.7205E+02   6.2004E+04  0.000E+00  0.000E+00  0.000E+00  2.04966E+03  1.555E-01  3.000E+00  1.080E+03  0.000E+00  0.000E+00
   1   30   42     9     6    6.2004E+04 -1.4849E+03   6.3489E+04  0.000E+00  0.000E+00  0.000E+00  2.04870E+03  2.001E-01  3.000E+00  4.500E+02  0.000E+00  0.000E+00
   1   30   43    10     1    8.0512E+04 -1.7892E+03   8.2302E+04  0.000E+00  0.000E+00  0.000E+00  2.04267E+03  1.747E-01  3.000E+00  1.350E+03  0.000E+00  0.000E+00
   1   30   44    10     2    8.2302E+04 -1.1796E+03   8.3481E+04  0.000E+00  0.000E+00  0.000E+00  2.03869E+03  1.893E-01  3.000E+00  9.000E+02  0.000E+00  0.000E+00
   1   29   44    10     3    8.3481E+04 -1.0365E+03   8.4518E+04  0.000E+00  0.000E+00  0.000E+00  2.03770E+03  1.966E-01  3.000E+00  4.500E+02  0.000E+00  0.000E+00
   1   29   45    10     4    8.4518E+04 -4.2463E+02   8.4942E+04  0.000E+00  0.000E+00  0.000E+00  2.03469E+03  1.855E-01  3.000E+00  1.350E+03  0.000E+00  0.000E+00
   1   29   46    10     5    8.4942E+04  4.6267E+02   8.4480E+04  0.000E+00  0.000E+00  0.000E+00  2.03069E+03  1.854E-01  3.000E+00  6.750E+02  0.000E+00  0.000E+00
   1   29   47    10     6    8.4480E+04  1.5179E+02   8.4328E+04  0.000E+00  0.000E+00  0.000E+00  2.02767E+03  1.746E-01  3.000E+00  2.250E+02  0.000E+00  0.000E+00
   1   30   47    10     7    8.4328E+04 -2.7514E+02   8.4603E+04  0.000E+00  0.000E+00  0.000E+00  2.02469E+03  1.943E-01  3.000E+00  9.000E+02  0.000E+00  0.000E+00
   1   30   48    10     8    8.4603E+04  5.4127E+02   8.4062E+04  0.000E+00  0.000E+00  0.000E+00  2.02271E+03  2.075E-01  3.000E+00  7.650E+02  0.000E+00  0.000E+00
   1   31   49    10     9    8.4062E+04  5.8705E+02   8.3475E+04  0.000E+00  0.000E+00  0.000E+00  2.01869E+03  1.866E-01  3.000E+00  8.550E+02  0.000E+00  0.000E+00
   1   32   50    10    10    8.3475E+04 -5.5122E+02   8.4026E+04  0.000E+00  0.000E+00  0.000E+00  2.01268E+03  1.776E-01  3.000E+00  1.710E+03  0.000E+00  0.000E+00
   1   32   51    11     1    1.0416E+05 -3.0793E+03   1.0724E+05  0.000E+00  0.000E+00  0.000E+00  2.00772E+03  2.190E-01  3.000E+00  1.350E+03  0.000E+00  0.000E+00
   1   33   52    11     2    1.0724E+05 -4.4183E+02   1.0768E+05  0.000E+00  0.000E+00  0.000E+00  2.00371E+03  2.112E-01  3.000E+00  1.530E+03  0.000E+00  0.000E+00
   1   33   53    11     3    1.0768E+05 -2.3962E+03   1.1007E+05  0.000E+00  0.000E+00  0.000E+00  1.99968E+03  1.751E-01  3.000E+00  4.500E+02  0.000E+00  0.000E+00
   1   34   53    11     4    1.1007E+05 -1.4231E+03   1.1150E+05  0.000E+00  0.000E+00  0.000E+00  1.99268E+03  1.824E-01  3.000E+00  1.080E+03  0.000E+00  0.000E+00
   1   34   54    11     5    1.1150E+05 -1.1362E+03   1.1263E+05  0.000E+00  0.000E+00  0.000E+00  1.98974E+03  2.376E-01  3.000E+00  9.000E+02  0.000E+00  0.000E+00
   1   35   54    11     6    1.1263E+05 -5.5791E+02   1.1319E+05  0.000E+00  0.000E+00  0.000E+00  1.98876E+03  2.602E-01  3.000E+00  4.500E+02  0.000E+00  0.000E+00
   1   35   55    11     7    1.1319E+05  5.7534E+02   1.1262E+05  0.000E+00  0.000E+00  0.000E+00  1.98675E+03  2.521E-01  3.000E+00  7.650E+02  0.000E+00  0.000E+00
   1   35   56    11     8    1.1262E+05 -3.9037E+02   1.1301E+05  0.000E+00  0.000E+00  0.000E+00  1.98374E+03  2.449E-01  3.000E+00  1.530E+03  0.000E+00  0.000E+00
   1   36   57    11     9    1.1301E+05 -3.9336E+02   1.1340E+05  0.000E+00  0.000E+00  0.000E+00  1.97977E+03  2.700E-01  3.000E+00  1.710E+03  0.000E+00  0.000E+00
   1   36   58    11    10    1.1340E+05 -2.7012E+02   1.1367E+05  0.000E+00  0.000E+00  0.000E+00  1.97880E+03  2.999E-01  3.000E+00  1.350E+03  0.000E+00  0.000E+00
   1   36   59    11    11    1.1367E+05 -2.0926E+02   1.1388E+05  0.000E+00  0.000E+00  0.000E+00  1.97677E+03  2.675E-01  3.000E+00  9.000E+02  0.000E+00  0.000E+00
   1   37   59    11    12    1.1388E+05  1.7592E+02   1.1370E+05  0.000E+00  0.000E+00  0.000E+00  1.97578E+03  2.819E-01  3.000E+00  2.250E+02  0.000E+00  0.000E+00
   1   37   60    11    13    1.1370E+05  4.3811E+02   1.1326E+05  0.000E+00  0.000E+00  0.000E+00  1.97481E+03  3.113E-01  3.000E+00  5.400E+02  0.000E+00  0.000E+00
   1   38   60    11    14    1.1326E+05 -6.6948E+01   1.1333E+05  0.000E+00  0.000E+00  0.000E+00  1.97385E+03  3.512E-01  3.000E+00  4.500E+02  0.000E+00  0.000E+00
   1   38   61    12     1    1.2408E+05 -1.9724E+02   1.2427E+05  0.000E+00  0.000E+00  0.000E+00  1.97187E+03  3.711E-01  3.000E+00  1.530E+03  0.000E+00  0.000E+00
   1   38   62    12     2    1.2427E+05 -2.2691E+02   1.2450E+05  0.000E+00  0.000E+00  0.000E+00  1.97085E+03  3.517E-01  3.000E+00  1.530E+03  0.000E+00  0.000E+00
   1   38   63    12     3    1.2450E+05 -8.4758E+01   1.2459E+05  0.000E+00  0.000E+00  0.000E+00  1.96981E+03  3.116E-01  3.000E+00  4.500E+02  0.000E+00  0.000E+00
   1   39   63    12     4    1.2459E+05 -1.0852E+03   1.2567E+05  0.000E+00  0.000E+00  0.000E+00  1.96879E+03  2.943E-01  3.000E+00  9.000E+02  0.000E+00  0.000E+00
   1   39   64    13     1    1.3071E+05 -3.1212E+02   1.3102E+05  0.000E+00  0.000E+00  0.000E+00  1.96783E+03  3.266E-01  3.000E+00  1.800E+03  0.000E+00  0.000E+00
   1   39   65    13     2    1.3102E+05 -1.0648E+03   1.3209E+05  0.000E+00  0.000E+00  0.000E+00  1.96682E+03  3.169E-01  3.000E+00  9.000E+02  0.000E+00  0.000E+00
   1   40   65    13     3    1.3209E+05 -2.3008E+03   1.3439E+05  0.000E+00  0.000E+00  0.000E+00  1.96589E+03  3.871E-01  3.000E+00  4.500E+02  0.000E+00  0.000E+00
   1   40   66    13     4    1.3439E+05 -1.8926E+02   1.3458E+05  0.000E+00  0.000E+00  0.000E+00  1.96486E+03  3.598E-01  3.000E+00  1.350E+03  0.000E+00  0.000E+00
   1   40   67    13     5    1.3458E+05  5.4475E+02   1.3403E+05  0.000E+00  0.000E+00  0.000E+00  1.96281E+03  3.070E-01  3.000E+00  6.750E+02  0.000E+00  0.000E+00
   1   40   68    13     6    1.3403E+05 -2.2749E+02   1.3426E+05  0.000E+00  0.000E+00  0.000E+00  1.96083E+03  3.315E-01  3.000E+00  1.350E+03  0.000E+00  0.000E+00
   1   41   69    13     7    1.3426E+05  5.4736E+02   1.3371E+05  0.000E+00  0.000E+00  0.000E+00  1.95981E+03  3.109E-01  3.000E+00  6.750E+02  0.000E+00  0.000E+00
   1   41   70    13     8    1.3371E+05 -4.2633E+02   1.3414E+05  0.000E+00  0.000E+00  0.000E+00  1.95675E+03  2.507E-01  3.000E+00  1.710E+03  0.000E+00  0.000E+00
   1   42   71    13     9    1.3414E+05 -3.8339E+02   1.3452E+05  0.000E+00  0.000E+00  0.000E+00  1.95075E+03  2.494E-01  3.000E+00  1.530E+03  0.000E+00  0.000E+00
   1   42   72    13    10    1.3452E+05  5.1337E+02   1.3401E+05  0.000E+00  0.000E+00  0.000E+00  1.94776E+03  2.606E-01  3.000E+00  6.750E+02  0.000E+00  0.000E+00
   1   42   73    13    11    1.3401E+05  1.6641E+02   1.3384E+05  0.000E+00  0.000E+00  0.000E+00  1.94474E+03  2.396E-01  3.000E+00  2.250E+02  0.000E+00  0.000E+00
   1   42   73    14     1    1.6521E+05 -8.6452E+01   1.6529E+05  0.000E+00  0.000E+00  0.000E+00  1.94381E+03  3.079E-01  3.000E+00  4.500E+02  0.000E+00  0.000E+00
   1   43   73    14     2    1.6529E+05 -5.1616E+02   1.6581E+05  0.000E+00  0.000E+00  0.000E+00  1.94285E+03  3.530E-01  3.000E+00  4.500E+02  0.000E+00  0.000E+00
   1   43   74    14     3    1.6581E+05  6.5644E+02   1.6515E+05  0.000E+00  0.000E+00  0.000E+00  1.94186E+03  3.581E-01  3.000E+00  7.650E+02  0.000E+00  0.000E+00
   1   43   75    14     4    1.6515E+05 -1.4515E+02   1.6530E+05  0.000E+00  0.000E+00  0.000E+00  1.93984E+03  3.387E-01  3.000E+00  9.000E+02  0.000E+00  0.000E+00
   1   44   75    14     5    1.6530E+05 -8.0930E+01   1.6538E+05  0.000E+00  0.000E+00  0.000E+00  1.93882E+03  3.202E-01  3.000E+00  4.500E+02  0.000E+00  0.000E+00
   1   44   76    14     6    1.6538E+05  5.7887E+02   1.6480E+05  0.000E+00  0.000E+00  0.000E+00  1.93686E+03  3.576E-01  3.000E+00  6.750E+02  0.000E+00  0.000E+00
   1   44   77    15     1    1.7237E+05  6.3353E+02   1.7174E+05  0.000E+00  0.000E+00  0.000E+00  1.93594E+03  4.386E-01  3.000E+00  6.750E+02  0.000E+00  0.000E+00
   1   44   78    15     2    1.7174E+05  5.7126E+02   1.7117E+05  0.000E+00  0.000E+00  0.000E+00  1.93485E+03  3.463E-01  3.000E+00  6.750E+02  0.000E+00  0.000E+00
   1   44   79    15     3    1.7117E+05 -1.6691E+02   1.7133E+05  0.000E+00  0.000E+00  0.000E+00  1.93181E+03  3.145E-01  3.000E+00  9.000E+02  0.000E+00  0.000E+00
   1   45   79    15     4    1.7133E+05 -5.1496E+02   1.7185E+05  0.000E+00  0.000E+00  0.000E+00  1.93086E+03  3.556E-01  3.000E+00  4.500E+02  0.000E+00  0.000E+00



1
  VOLUMETRIC BUDGET FOR UNSATURATED ZONE BENEATH STREAMS AT END OF TIME STEP    28 STRESS PERIOD   2
  ------------------------------------------------------------------------------------------------

    CUMULATIVE VOLUMES             L**3    RATES FOR THIS TIME STEP         L**3/T
    ------------------                     ------------------------


          STREAM LOSS =            0.0000            STREAM LOSS =            0.0000
    CHANGE IN STORAGE =            0.0000      CHANGE IN STORAGE =            0.0000
       RECHARGE TO GW =            0.0000         RECHARGE TO GW =            0.0000

             TOTAL IN =            0.0000               TOTAL IN =            0.0000

            TOTAL OUT =            0.0000              TOTAL OUT =            0.0000

             IN - OUT =            0.0000               IN - OUT =            0.0000

  PERCENT DISCREPANCY =            0.00      PERCENT DISCREPANCY =             0.00





UNSATURATED ZONE PACKAGE VOLUMETRIC BUDGET FOR  TIME STEP    28 STRESS PERIOD    2
  ------------------------------------------------------------------------------



     CUMULATIVE VOLUMES      L**3       RATES FOR THIS TIME STEP      L**3/T
     ------------------                 ------------------------

           IN:                                      IN:
           ---                                      ---
        INFILTRATION =      402195.7743          INFILTRATION =       13868.8198

          OUT:                                     OUT:
          ----                                     ----
              UZF ET =       0.0000E+00                UZF ET =       0.0000E+00
        UZF RECHARGE =      402195.7743          UZF RECHARGE =       13868.8198

            IN - OUT =       0.0000E+00              IN - OUT =       0.0000E+00

          STORAGE:                                 STORAGE:
          --------                                 --------
      STORAGE CHANGE =       0.0000E+00        STORAGE CHANGE =       0.0000E+00

 PERCENT DISCREPANCY IS DIFFERENCE BETWEEN IN-OUT MINUS CHANGE IN STORAGE
 DIVIDED BY THE AVERAGE OF IN AND OUT TIMES 100

 PERCENT DISCREPANCY =           0.00     PERCENT DISCREPANCY =           0.00






1
  VOLUMETRIC BUDGET FOR ENTIRE MODEL AT END OF TIME STEP   28, STRESS PERIOD   2
  ------------------------------------------------------------------------------

     CUMULATIVE VOLUMES      L**3       RATES FOR THIS TIME STEP      L**3/T
     ------------------                 ------------------------

           IN:                                      IN:
           ---                                      ---
             STORAGE =           0.0000               STORAGE =           0.0000
       CONSTANT HEAD =           0.0000         CONSTANT HEAD =           0.0000
               WELLS =        3224.0000                 WELLS =          76.0000
      STREAM LEAKAGE =      550626.3125        STREAM LEAKAGE =       18996.3223
        UZF RECHARGE =      402203.6875          UZF RECHARGE =       13869.0908
               GW ET =           0.0000                 GW ET =           0.0000
     SURFACE LEAKAGE =           0.0000       SURFACE LEAKAGE =           0.0000

            TOTAL IN =      956054.0000              TOTAL IN =       32941.4141

          OUT:                                     OUT:
          ----                                     ----
             STORAGE =           0.0000               STORAGE =           0.0000
       CONSTANT HEAD =       29079.3652         CONSTANT HEAD =        1002.7369
               WELLS =           0.0000                 WELLS =           0.0000
      STREAM LEAKAGE =     5515011.5000        STREAM LEAKAGE =      190843.3438
        UZF RECHARGE =           0.0000          UZF RECHARGE =           0.0000
               GW ET =           0.0000                 GW ET =           0.0000
     SURFACE LEAKAGE =           0.0000       SURFACE LEAKAGE =           0.0000

           TOTAL OUT =     5544091.0000             TOTAL OUT =      191846.0781

            IN - OUT =    -4588037.0000              IN - OUT =     -158904.6562

 PERCENT DISCREPANCY =        -141.17     PERCENT DISCREPANCY =        -141.38






         TIME SUMMARY AT END OF TIME STEP   28 IN STRESS PERIOD    2
                    SECONDS     MINUTES      HOURS       DAYS        YEARS
                    -----------------------------------------------------------
   TIME STEP LENGTH  86400.      1440.0      24.000      1.0000     2.73785E-03
 STRESS PERIOD TIME 2.41920E+06  40320.      672.00      28.000     7.66598E-02
         TOTAL TIME 2.50560E+06  41760.      696.00      29.000     7.93977E-02
1
 
 SOLVING FOR HEAD 

 NO OUTPUT CONTROL FOR STRESS PERIOD    2   TIME STEP   29
 
 SOLVING FOR HEAD 

 NO OUTPUT CONTROL FOR STRESS PERIOD    2   TIME STEP   30
 
 SOLVING FOR HEAD 

 NO OUTPUT CONTROL FOR STRESS PERIOD    2   TIME STEP   31
 
 SOLVING FOR HEAD 

 NO OUTPUT CONTROL FOR STRESS PERIOD    2   TIME STEP   32
 
 SOLVING FOR HEAD 

 NO OUTPUT CONTROL FOR STRESS PERIOD    2   TIME STEP   33
 
 SOLVING FOR HEAD 

 NO OUTPUT CONTROL FOR STRESS PERIOD    2   TIME STEP   34
 
 SOLVING FOR HEAD 

 NO OUTPUT CONTROL FOR STRESS PERIOD    2   TIME STEP   35
 
 SOLVING FOR HEAD 

 NO OUTPUT CONTROL FOR STRESS PERIOD    2   TIME STEP   36
 
 SOLVING FOR HEAD 

 NO OUTPUT CONTROL FOR STRESS PERIOD    2   TIME STEP   37
 
 SOLVING FOR HEAD 

 NO OUTPUT CONTROL FOR STRESS PERIOD    2   TIME STEP   38
 
 SOLVING FOR HEAD 

 NO OUTPUT CONTROL FOR STRESS PERIOD    2   TIME STEP   39
 
 SOLVING FOR HEAD 

 NO OUTPUT CONTROL FOR STRESS PERIOD    2   TIME STEP   40
 
 SOLVING FOR HEAD 

 NO OUTPUT CONTROL FOR STRESS PERIOD    2   TIME STEP   41
 
 SOLVING FOR HEAD 

 NO OUTPUT CONTROL FOR STRESS PERIOD    2   TIME STEP   42
 
 SOLVING FOR HEAD 

 NO OUTPUT CONTROL FOR STRESS PERIOD    2   TIME STEP   43
 
 SOLVING FOR HEAD 

 NO OUTPUT CONTROL FOR STRESS PERIOD    2   TIME STEP   44
 
 SOLVING FOR HEAD 

 NO OUTPUT CONTROL FOR STRESS PERIOD    2   TIME STEP   45
 
 SOLVING FOR HEAD 

 NO OUTPUT CONTROL FOR STRESS PERIOD    2   TIME STEP   46
 
 SOLVING FOR HEAD 

 NO OUTPUT CONTROL FOR STRESS PERIOD    2   TIME STEP   47
 
 SOLVING FOR HEAD 

 NO OUTPUT CONTROL FOR STRESS PERIOD    2   TIME STEP   48
 
 SOLVING FOR HEAD 

 NO OUTPUT CONTROL FOR STRESS PERIOD    2   TIME STEP   49
 
 SOLVING FOR HEAD 

 NO OUTPUT CONTROL FOR STRESS PERIOD    2   TIME STEP   50
 
 SOLVING FOR HEAD 

 NO OUTPUT CONTROL FOR STRESS PERIOD    2   TIME STEP   51
 
 SOLVING FOR HEAD 

 NO OUTPUT CONTROL FOR STRESS PERIOD    2   TIME STEP   52
 
 SOLVING FOR HEAD 

 NO OUTPUT CONTROL FOR STRESS PERIOD    2   TIME STEP   53
 
 SOLVING FOR HEAD 

 NO OUTPUT CONTROL FOR STRESS PERIOD    2   TIME STEP   54
 
 SOLVING FOR HEAD 

 NO OUTPUT CONTROL FOR STRESS PERIOD    2   TIME STEP   55
 
 SOLVING FOR HEAD 

 NO OUTPUT CONTROL FOR STRESS PERIOD    2   TIME STEP   56
 
 SOLVING FOR HEAD 

 NO OUTPUT CONTROL FOR STRESS PERIOD    2   TIME STEP   57
 
 SOLVING FOR HEAD 

 NO OUTPUT CONTROL FOR STRESS PERIOD    2   TIME STEP   58
 
 SOLVING FOR HEAD 

 NO OUTPUT CONTROL FOR STRESS PERIOD    2   TIME STEP   59
 
 SOLVING FOR HEAD 

 NO OUTPUT CONTROL FOR STRESS PERIOD    2   TIME STEP   60
 
 SOLVING FOR HEAD 

 NO OUTPUT CONTROL FOR STRESS PERIOD    2   TIME STEP   61
 
 SOLVING FOR HEAD 

 NO OUTPUT CONTROL FOR STRESS PERIOD    2   TIME STEP   62
 
 SOLVING FOR HEAD 

 NO OUTPUT CONTROL FOR STRESS PERIOD    2   TIME STEP   63
 
 SOLVING FOR HEAD 

 NO OUTPUT CONTROL FOR STRESS PERIOD    2   TIME STEP   64
 
 SOLVING FOR HEAD 

 NO OUTPUT CONTROL FOR STRESS PERIOD    2   TIME STEP   65
 
 SOLVING FOR HEAD 

 NO OUTPUT CONTROL FOR STRESS PERIOD    2   TIME STEP   66
 
 SOLVING FOR HEAD 

 NO OUTPUT CONTROL FOR STRESS PERIOD    2   TIME STEP   67
 
 SOLVING FOR HEAD 

 NO OUTPUT CONTROL FOR STRESS PERIOD    2   TIME STEP   68
 
 SOLVING FOR HEAD 

 NO OUTPUT CONTROL FOR STRESS PERIOD    2   TIME STEP   69
 
 SOLVING FOR HEAD 

 NO OUTPUT CONTROL FOR STRESS PERIOD    2   TIME STEP   70
 
 SOLVING FOR HEAD 

 NO OUTPUT CONTROL FOR STRESS PERIOD    2   TIME STEP   71
 
 SOLVING FOR HEAD 

 NO OUTPUT CONTROL FOR STRESS PERIOD    2   TIME STEP   72
 
 SOLVING FOR HEAD 

 NO OUTPUT CONTROL FOR STRESS PERIOD    2   TIME STEP   73
 
 SOLVING FOR HEAD 

 NO OUTPUT CONTROL FOR STRESS PERIOD    2   TIME STEP   74
 
 SOLVING FOR HEAD 

 NO OUTPUT CONTROL FOR STRESS PERIOD    2   TIME STEP   75
 
 SOLVING FOR HEAD 

 NO OUTPUT CONTROL FOR STRESS PERIOD    2   TIME STEP   76
 
 SOLVING FOR HEAD 

 NO OUTPUT CONTROL FOR STRESS PERIOD    2   TIME STEP   77
 
 SOLVING FOR HEAD 

 NO OUTPUT CONTROL FOR STRESS PERIOD    2   TIME STEP   78
 
 SOLVING FOR HEAD 

 NO OUTPUT CONTROL FOR STRESS PERIOD    2   TIME STEP   79
 
 SOLVING FOR HEAD 

 NO OUTPUT CONTROL FOR STRESS PERIOD    2   TIME STEP   80
 
 SOLVING FOR HEAD 

 NO OUTPUT CONTROL FOR STRESS PERIOD    2   TIME STEP   81
 
 SOLVING FOR HEAD 

 NO OUTPUT CONTROL FOR STRESS PERIOD    2   TIME STEP   82
 
 SOLVING FOR HEAD 

 NO OUTPUT CONTROL FOR STRESS PERIOD    2   TIME STEP   83
 
 SOLVING FOR HEAD 

 NO OUTPUT CONTROL FOR STRESS PERIOD    2   TIME STEP   84
 
 SOLVING FOR HEAD 

 NO OUTPUT CONTROL FOR STRESS PERIOD    2   TIME STEP   85
 
 SOLVING FOR HEAD 

 NO OUTPUT CONTROL FOR STRESS PERIOD    2   TIME STEP   86
 
 SOLVING FOR HEAD 

 NO OUTPUT CONTROL FOR STRESS PERIOD    2   TIME STEP   87
 
 SOLVING FOR HEAD 

 NO OUTPUT CONTROL FOR STRESS PERIOD    2   TIME STEP   88
 
 SOLVING FOR HEAD 

 NO OUTPUT CONTROL FOR STRESS PERIOD    2   TIME STEP   89
 
 SOLVING FOR HEAD 

 NO OUTPUT CONTROL FOR STRESS PERIOD    2   TIME STEP   90
 
 SOLVING FOR HEAD 

 NO OUTPUT CONTROL FOR STRESS PERIOD    2   TIME STEP   91
 
 SOLVING FOR HEAD 

 NO OUTPUT CONTROL FOR STRESS PERIOD    2   TIME STEP   92
 
 SOLVING FOR HEAD 

 NO OUTPUT CONTROL FOR STRESS PERIOD    2   TIME STEP   93
 
 SOLVING FOR HEAD 

 NO OUTPUT CONTROL FOR STRESS PERIOD    2   TIME STEP   94
 
 SOLVING FOR HEAD 

 NO OUTPUT CONTROL FOR STRESS PERIOD    2   TIME STEP   95
 
 SOLVING FOR HEAD 

 NO OUTPUT CONTROL FOR STRESS PERIOD    2   TIME STEP   96
 
 SOLVING FOR HEAD 

 NO OUTPUT CONTROL FOR STRESS PERIOD    2   TIME STEP   97
 
 SOLVING FOR HEAD 

 NO OUTPUT CONTROL FOR STRESS PERIOD    2   TIME STEP   98
 
 SOLVING FOR HEAD 

 NO OUTPUT CONTROL FOR STRESS PERIOD    2   TIME STEP   99
 
 SOLVING FOR HEAD 

 NO OUTPUT CONTROL FOR STRESS PERIOD    2   TIME STEP  100
 
 SOLVING FOR HEAD 

 NO OUTPUT CONTROL FOR STRESS PERIOD    2   TIME STEP  101
 
 SOLVING FOR HEAD 

 NO OUTPUT CONTROL FOR STRESS PERIOD    2   TIME STEP  102
 
 SOLVING FOR HEAD 

 NO OUTPUT CONTROL FOR STRESS PERIOD    2   TIME STEP  103
 
 SOLVING FOR HEAD 

 NO OUTPUT CONTROL FOR STRESS PERIOD    2   TIME STEP  104
 
 SOLVING FOR HEAD 

 NO OUTPUT CONTROL FOR STRESS PERIOD    2   TIME STEP  105
 
 SOLVING FOR HEAD 

 NO OUTPUT CONTROL FOR STRESS PERIOD    2   TIME STEP  106
 
 SOLVING FOR HEAD 

 NO OUTPUT CONTROL FOR STRESS PERIOD    2   TIME STEP  107
 
 SOLVING FOR HEAD 

 NO OUTPUT CONTROL FOR STRESS PERIOD    2   TIME STEP  108
 
 SOLVING FOR HEAD 

 NO OUTPUT CONTROL FOR STRESS PERIOD    2   TIME STEP  109
 
 SOLVING FOR HEAD 

 NO OUTPUT CONTROL FOR STRESS PERIOD    2   TIME STEP  110
 
 SOLVING FOR HEAD 

 NO OUTPUT CONTROL FOR STRESS PERIOD    2   TIME STEP  111
 
 SOLVING FOR HEAD 

 NO OUTPUT CONTROL FOR STRESS PERIOD    2   TIME STEP  112
 
 SOLVING FOR HEAD 

 NO OUTPUT CONTROL FOR STRESS PERIOD    2   TIME STEP  113
 
 SOLVING FOR HEAD 

 NO OUTPUT CONTROL FOR STRESS PERIOD    2   TIME STEP  114
 
 SOLVING FOR HEAD 

 NO OUTPUT CONTROL FOR STRESS PERIOD    2   TIME STEP  115
 
 SOLVING FOR HEAD 

 NO OUTPUT CONTROL FOR STRESS PERIOD    2   TIME STEP  116
 
 SOLVING FOR HEAD 

 NO OUTPUT CONTROL FOR STRESS PERIOD    2   TIME STEP  117
 
 SOLVING FOR HEAD 

 NO OUTPUT CONTROL FOR STRESS PERIOD    2   TIME STEP  118
 
 SOLVING FOR HEAD 

 NO OUTPUT CONTROL FOR STRESS PERIOD    2   TIME STEP  119
 
 SOLVING FOR HEAD 

 NO OUTPUT CONTROL FOR STRESS PERIOD    2   TIME STEP  120
 
 SOLVING FOR HEAD 

 NO OUTPUT CONTROL FOR STRESS PERIOD    2   TIME STEP  121
 
 SOLVING FOR HEAD 

 NO OUTPUT CONTROL FOR STRESS PERIOD    2   TIME STEP  122
 
 SOLVING FOR HEAD 

 NO OUTPUT CONTROL FOR STRESS PERIOD    2   TIME STEP  123
 
 SOLVING FOR HEAD 

 NO OUTPUT CONTROL FOR STRESS PERIOD    2   TIME STEP  124
 
 SOLVING FOR HEAD 

 NO OUTPUT CONTROL FOR STRESS PERIOD    2   TIME STEP  125
 
 SOLVING FOR HEAD 

 NO OUTPUT CONTROL FOR STRESS PERIOD    2   TIME STEP  126
 
 SOLVING FOR HEAD 

 NO OUTPUT CONTROL FOR STRESS PERIOD    2   TIME STEP  127
 
 SOLVING FOR HEAD 

 NO OUTPUT CONTROL FOR STRESS PERIOD    2   TIME STEP  128
 
 SOLVING FOR HEAD 

 NO OUTPUT CONTROL FOR STRESS PERIOD    2   TIME STEP  129
 
 SOLVING FOR HEAD 

 NO OUTPUT CONTROL FOR STRESS PERIOD    2   TIME STEP  130
 
 SOLVING FOR HEAD 

 NO OUTPUT CONTROL FOR STRESS PERIOD    2   TIME STEP  131
 
 SOLVING FOR HEAD 

 NO OUTPUT CONTROL FOR STRESS PERIOD    2   TIME STEP  132
 
 SOLVING FOR HEAD 

 NO OUTPUT CONTROL FOR STRESS PERIOD    2   TIME STEP  133
 
 SOLVING FOR HEAD 

 NO OUTPUT CONTROL FOR STRESS PERIOD    2   TIME STEP  134
 
 SOLVING FOR HEAD 

 NO OUTPUT CONTROL FOR STRESS PERIOD    2   TIME STEP  135
 
 SOLVING FOR HEAD 

 NO OUTPUT CONTROL FOR STRESS PERIOD    2   TIME STEP  136
 
 SOLVING FOR HEAD 

 NO OUTPUT CONTROL FOR STRESS PERIOD    2   TIME STEP  137
 
 SOLVING FOR HEAD 

 NO OUTPUT CONTROL FOR STRESS PERIOD    2   TIME STEP  138
 
 SOLVING FOR HEAD 

 NO OUTPUT CONTROL FOR STRESS PERIOD    2   TIME STEP  139
 
 SOLVING FOR HEAD 

 NO OUTPUT CONTROL FOR STRESS PERIOD    2   TIME STEP  140
 
 SOLVING FOR HEAD 

 NO OUTPUT CONTROL FOR STRESS PERIOD    2   TIME STEP  141
 
 SOLVING FOR HEAD 

 NO OUTPUT CONTROL FOR STRESS PERIOD    2   TIME STEP  142
 
 SOLVING FOR HEAD 

 NO OUTPUT CONTROL FOR STRESS PERIOD    2   TIME STEP  143
 
 SOLVING FOR HEAD 

 NO OUTPUT CONTROL FOR STRESS PERIOD    2   TIME STEP  144
 
 SOLVING FOR HEAD 

 NO OUTPUT CONTROL FOR STRESS PERIOD    2   TIME STEP  145
 
 SOLVING FOR HEAD 

 NO OUTPUT CONTROL FOR STRESS PERIOD    2   TIME STEP  146
 
 SOLVING FOR HEAD 

 NO OUTPUT CONTROL FOR STRESS PERIOD    2   TIME STEP  147
 
 SOLVING FOR HEAD 

 NO OUTPUT CONTROL FOR STRESS PERIOD    2   TIME STEP  148
 
 SOLVING FOR HEAD 

 NO OUTPUT CONTROL FOR STRESS PERIOD    2   TIME STEP  149
 
 SOLVING FOR HEAD 

 NO OUTPUT CONTROL FOR STRESS PERIOD    2   TIME STEP  150
 
 SOLVING FOR HEAD 

 NO OUTPUT CONTROL FOR STRESS PERIOD    2   TIME STEP  151
 
 SOLVING FOR HEAD 

 NO OUTPUT CONTROL FOR STRESS PERIOD    2   TIME STEP  152
 
 SOLVING FOR HEAD 

 NO OUTPUT CONTROL FOR STRESS PERIOD    2   TIME STEP  153
 
 SOLVING FOR HEAD 

 NO OUTPUT CONTROL FOR STRESS PERIOD    2   TIME STEP  154
 
 SOLVING FOR HEAD 

 NO OUTPUT CONTROL FOR STRESS PERIOD    2   TIME STEP  155
 
 SOLVING FOR HEAD 

 NO OUTPUT CONTROL FOR STRESS PERIOD    2   TIME STEP  156
 
 SOLVING FOR HEAD 

 NO OUTPUT CONTROL FOR STRESS PERIOD    2   TIME STEP  157
 
 SOLVING FOR HEAD 

 NO OUTPUT CONTROL FOR STRESS PERIOD    2   TIME STEP  158
 
 SOLVING FOR HEAD 

 NO OUTPUT CONTROL FOR STRESS PERIOD    2   TIME STEP  159
 
 SOLVING FOR HEAD 

 NO OUTPUT CONTROL FOR STRESS PERIOD    2   TIME STEP  160
 
 SOLVING FOR HEAD 

 NO OUTPUT CONTROL FOR STRESS PERIOD    2   TIME STEP  161
 
 SOLVING FOR HEAD 

 NO OUTPUT CONTROL FOR STRESS PERIOD    2   TIME STEP  162
 
 SOLVING FOR HEAD 

 NO OUTPUT CONTROL FOR STRESS PERIOD    2   TIME STEP  163
 
 SOLVING FOR HEAD 

 NO OUTPUT CONTROL FOR STRESS PERIOD    2   TIME STEP  164
 
 SOLVING FOR HEAD 

 NO OUTPUT CONTROL FOR STRESS PERIOD    2   TIME STEP  165
 
 SOLVING FOR HEAD 

 NO OUTPUT CONTROL FOR STRESS PERIOD    2   TIME STEP  166
 
 SOLVING FOR HEAD 

 NO OUTPUT CONTROL FOR STRESS PERIOD    2   TIME STEP  167
 
 SOLVING FOR HEAD 

 NO OUTPUT CONTROL FOR STRESS PERIOD    2   TIME STEP  168
 
 SOLVING FOR HEAD 

 NO OUTPUT CONTROL FOR STRESS PERIOD    2   TIME STEP  169
 
 SOLVING FOR HEAD 

 NO OUTPUT CONTROL FOR STRESS PERIOD    2   TIME STEP  170
 
 SOLVING FOR HEAD 

 NO OUTPUT CONTROL FOR STRESS PERIOD    2   TIME STEP  171
 
 SOLVING FOR HEAD 

 NO OUTPUT CONTROL FOR STRESS PERIOD    2   TIME STEP  172
 
 SOLVING FOR HEAD 

 NO OUTPUT CONTROL FOR STRESS PERIOD    2   TIME STEP  173
 
 SOLVING FOR HEAD 

 NO OUTPUT CONTROL FOR STRESS PERIOD    2   TIME STEP  174
 
 SOLVING FOR HEAD 

 NO OUTPUT CONTROL FOR STRESS PERIOD    2   TIME STEP  175
 
 SOLVING FOR HEAD 

 NO OUTPUT CONTROL FOR STRESS PERIOD    2   TIME STEP  176
 
 SOLVING FOR HEAD 

 NO OUTPUT CONTROL FOR STRESS PERIOD    2   TIME STEP  177
 
 SOLVING FOR HEAD 

 NO OUTPUT CONTROL FOR STRESS PERIOD    2   TIME STEP  178
 
 SOLVING FOR HEAD 

 NO OUTPUT CONTROL FOR STRESS PERIOD    2   TIME STEP  179
 
 SOLVING FOR HEAD 

 NO OUTPUT CONTROL FOR STRESS PERIOD    2   TIME STEP  180
 
 SOLVING FOR HEAD 

 NO OUTPUT CONTROL FOR STRESS PERIOD    2   TIME STEP  181
 
 SOLVING FOR HEAD 

 NO OUTPUT CONTROL FOR STRESS PERIOD    2   TIME STEP  182
 
 SOLVING FOR HEAD 

 NO OUTPUT CONTROL FOR STRESS PERIOD    2   TIME STEP  183
 
 SOLVING FOR HEAD 

 NO OUTPUT CONTROL FOR STRESS PERIOD    2   TIME STEP  184
 
 SOLVING FOR HEAD 

 NO OUTPUT CONTROL FOR STRESS PERIOD    2   TIME STEP  185
 
 SOLVING FOR HEAD 

 NO OUTPUT CONTROL FOR STRESS PERIOD    2   TIME STEP  186
 
 SOLVING FOR HEAD 

 NO OUTPUT CONTROL FOR STRESS PERIOD    2   TIME STEP  187
 
 SOLVING FOR HEAD 

 NO OUTPUT CONTROL FOR STRESS PERIOD    2   TIME STEP  188
 
 SOLVING FOR HEAD 

 NO OUTPUT CONTROL FOR STRESS PERIOD    2   TIME STEP  189
 
 SOLVING FOR HEAD 

 NO OUTPUT CONTROL FOR STRESS PERIOD    2   TIME STEP  190
 
 SOLVING FOR HEAD 

 NO OUTPUT CONTROL FOR STRESS PERIOD    2   TIME STEP  191
 
 SOLVING FOR HEAD 

 NO OUTPUT CONTROL FOR STRESS PERIOD    2   TIME STEP  192
 
 SOLVING FOR HEAD 

 NO OUTPUT CONTROL FOR STRESS PERIOD    2   TIME STEP  193
 
 SOLVING FOR HEAD 

 NO OUTPUT CONTROL FOR STRESS PERIOD    2   TIME STEP  194
 
 SOLVING FOR HEAD 

 NO OUTPUT CONTROL FOR STRESS PERIOD    2   TIME STEP  195
 
 SOLVING FOR HEAD 

 NO OUTPUT CONTROL FOR STRESS PERIOD    2   TIME STEP  196
 
 SOLVING FOR HEAD 

 NO OUTPUT CONTROL FOR STRESS PERIOD    2   TIME STEP  197
 
 SOLVING FOR HEAD 

 NO OUTPUT CONTROL FOR STRESS PERIOD    2   TIME STEP  198
 
 SOLVING FOR HEAD 

 NO OUTPUT CONTROL FOR STRESS PERIOD    2   TIME STEP  199
 
 SOLVING FOR HEAD 

 NO OUTPUT CONTROL FOR STRESS PERIOD    2   TIME STEP  200
 
 SOLVING FOR HEAD 

 NO OUTPUT CONTROL FOR STRESS PERIOD    2   TIME STEP  201
 
 SOLVING FOR HEAD 

 NO OUTPUT CONTROL FOR STRESS PERIOD    2   TIME STEP  202
 
 SOLVING FOR HEAD 

 NO OUTPUT CONTROL FOR STRESS PERIOD    2   TIME STEP  203
 
 SOLVING FOR HEAD 

 NO OUTPUT CONTROL FOR STRESS PERIOD    2   TIME STEP  204
 
 SOLVING FOR HEAD 

 NO OUTPUT CONTROL FOR STRESS PERIOD    2   TIME STEP  205
 
 SOLVING FOR HEAD 

 NO OUTPUT CONTROL FOR STRESS PERIOD    2   TIME STEP  206
 
 SOLVING FOR HEAD 

 NO OUTPUT CONTROL FOR STRESS PERIOD    2   TIME STEP  207
 
 SOLVING FOR HEAD 

 NO OUTPUT CONTROL FOR STRESS PERIOD    2   TIME STEP  208
 
 SOLVING FOR HEAD 

 NO OUTPUT CONTROL FOR STRESS PERIOD    2   TIME STEP  209
 
 SOLVING FOR HEAD 

 NO OUTPUT CONTROL FOR STRESS PERIOD    2   TIME STEP  210
 
 SOLVING FOR HEAD 

 NO OUTPUT CONTROL FOR STRESS PERIOD    2   TIME STEP  211
 
 SOLVING FOR HEAD 

 NO OUTPUT CONTROL FOR STRESS PERIOD    2   TIME STEP  212
 
 SOLVING FOR HEAD 

 NO OUTPUT CONTROL FOR STRESS PERIOD    2   TIME STEP  213
 
 SOLVING FOR HEAD 

 NO OUTPUT CONTROL FOR STRESS PERIOD    2   TIME STEP  214
 
 SOLVING FOR HEAD 

 NO OUTPUT CONTROL FOR STRESS PERIOD    2   TIME STEP  215
 
 SOLVING FOR HEAD 

 NO OUTPUT CONTROL FOR STRESS PERIOD    2   TIME STEP  216
 
 SOLVING FOR HEAD 

 NO OUTPUT CONTROL FOR STRESS PERIOD    2   TIME STEP  217
 
 SOLVING FOR HEAD 

 NO OUTPUT CONTROL FOR STRESS PERIOD    2   TIME STEP  218
 
 SOLVING FOR HEAD 

 NO OUTPUT CONTROL FOR STRESS PERIOD    2   TIME STEP  219
 
 SOLVING FOR HEAD 

 NO OUTPUT CONTROL FOR STRESS PERIOD    2   TIME STEP  220
 
 SOLVING FOR HEAD 

 NO OUTPUT CONTROL FOR STRESS PERIOD    2   TIME STEP  221
 
 SOLVING FOR HEAD 

 NO OUTPUT CONTROL FOR STRESS PERIOD    2   TIME STEP  222
 
 SOLVING FOR HEAD 

 NO OUTPUT CONTROL FOR STRESS PERIOD    2   TIME STEP  223
 
 SOLVING FOR HEAD 

 NO OUTPUT CONTROL FOR STRESS PERIOD    2   TIME STEP  224
 
 SOLVING FOR HEAD 

 NO OUTPUT CONTROL FOR STRESS PERIOD    2   TIME STEP  225
 
 SOLVING FOR HEAD 

 NO OUTPUT CONTROL FOR STRESS PERIOD    2   TIME STEP  226
 
 SOLVING FOR HEAD 

 NO OUTPUT CONTROL FOR STRESS PERIOD    2   TIME STEP  227
 
 SOLVING FOR HEAD 

 NO OUTPUT CONTROL FOR STRESS PERIOD    2   TIME STEP  228
 
 SOLVING FOR HEAD 

 NO OUTPUT CONTROL FOR STRESS PERIOD    2   TIME STEP  229
 
 SOLVING FOR HEAD 

 NO OUTPUT CONTROL FOR STRESS PERIOD    2   TIME STEP  230
 
 SOLVING FOR HEAD 

 NO OUTPUT CONTROL FOR STRESS PERIOD    2   TIME STEP  231
 
 SOLVING FOR HEAD 

 NO OUTPUT CONTROL FOR STRESS PERIOD    2   TIME STEP  232
 
 SOLVING FOR HEAD 

 NO OUTPUT CONTROL FOR STRESS PERIOD    2   TIME STEP  233
 
 SOLVING FOR HEAD 

 NO OUTPUT CONTROL FOR STRESS PERIOD    2   TIME STEP  234
 
 SOLVING FOR HEAD 

 NO OUTPUT CONTROL FOR STRESS PERIOD    2   TIME STEP  235
 
 SOLVING FOR HEAD 

 NO OUTPUT CONTROL FOR STRESS PERIOD    2   TIME STEP  236
 
 SOLVING FOR HEAD 

 NO OUTPUT CONTROL FOR STRESS PERIOD    2   TIME STEP  237
 
 SOLVING FOR HEAD 

 NO OUTPUT CONTROL FOR STRESS PERIOD    2   TIME STEP  238
 
 SOLVING FOR HEAD 

 NO OUTPUT CONTROL FOR STRESS PERIOD    2   TIME STEP  239
 
 SOLVING FOR HEAD 

 NO OUTPUT CONTROL FOR STRESS PERIOD    2   TIME STEP  240
 
 SOLVING FOR HEAD 

 NO OUTPUT CONTROL FOR STRESS PERIOD    2   TIME STEP  241
 
 SOLVING FOR HEAD 

 NO OUTPUT CONTROL FOR STRESS PERIOD    2   TIME STEP  242
 
 SOLVING FOR HEAD 

 NO OUTPUT CONTROL FOR STRESS PERIOD    2   TIME STEP  243
 
 SOLVING FOR HEAD 

 NO OUTPUT CONTROL FOR STRESS PERIOD    2   TIME STEP  244
 
 SOLVING FOR HEAD 

 NO OUTPUT CONTROL FOR STRESS PERIOD    2   TIME STEP  245
 
 SOLVING FOR HEAD 

 NO OUTPUT CONTROL FOR STRESS PERIOD    2   TIME STEP  246
 
 SOLVING FOR HEAD 

 NO OUTPUT CONTROL FOR STRESS PERIOD    2   TIME STEP  247
 
 SOLVING FOR HEAD 

 NO OUTPUT CONTROL FOR STRESS PERIOD    2   TIME STEP  248
 
 SOLVING FOR HEAD 

 NO OUTPUT CONTROL FOR STRESS PERIOD    2   TIME STEP  249
 
 SOLVING FOR HEAD 

 NO OUTPUT CONTROL FOR STRESS PERIOD    2   TIME STEP  250
 
 SOLVING FOR HEAD 

 NO OUTPUT CONTROL FOR STRESS PERIOD    2   TIME STEP  251
 
 SOLVING FOR HEAD 

 NO OUTPUT CONTROL FOR STRESS PERIOD    2   TIME STEP  252
 
 SOLVING FOR HEAD 

 NO OUTPUT CONTROL FOR STRESS PERIOD    2   TIME STEP  253
 
 SOLVING FOR HEAD 

 NO OUTPUT CONTROL FOR STRESS PERIOD    2   TIME STEP  254
 
 SOLVING FOR HEAD 

 NO OUTPUT CONTROL FOR STRESS PERIOD    2   TIME STEP  255
 
 SOLVING FOR HEAD 

 NO OUTPUT CONTROL FOR STRESS PERIOD    2   TIME STEP  256
 
 SOLVING FOR HEAD 

 NO OUTPUT CONTROL FOR STRESS PERIOD    2   TIME STEP  257
 
 SOLVING FOR HEAD 

 NO OUTPUT CONTROL FOR STRESS PERIOD    2   TIME STEP  258
 
 SOLVING FOR HEAD 

 NO OUTPUT CONTROL FOR STRESS PERIOD    2   TIME STEP  259
 
 SOLVING FOR HEAD 

 NO OUTPUT CONTROL FOR STRESS PERIOD    2   TIME STEP  260
 
 SOLVING FOR HEAD 

 NO OUTPUT CONTROL FOR STRESS PERIOD    2   TIME STEP  261
 
 SOLVING FOR HEAD 

 NO OUTPUT CONTROL FOR STRESS PERIOD    2   TIME STEP  262
 
 SOLVING FOR HEAD 

 NO OUTPUT CONTROL FOR STRESS PERIOD    2   TIME STEP  263
 
 SOLVING FOR HEAD 

 NO OUTPUT CONTROL FOR STRESS PERIOD    2   TIME STEP  264
 
 SOLVING FOR HEAD 

 NO OUTPUT CONTROL FOR STRESS PERIOD    2   TIME STEP  265
 
 SOLVING FOR HEAD 

 NO OUTPUT CONTROL FOR STRESS PERIOD    2   TIME STEP  266
 
 SOLVING FOR HEAD 

 NO OUTPUT CONTROL FOR STRESS PERIOD    2   TIME STEP  267
 
 SOLVING FOR HEAD 

 NO OUTPUT CONTROL FOR STRESS PERIOD    2   TIME STEP  268
 
 SOLVING FOR HEAD 

 NO OUTPUT CONTROL FOR STRESS PERIOD    2   TIME STEP  269
 
 SOLVING FOR HEAD 

 NO OUTPUT CONTROL FOR STRESS PERIOD    2   TIME STEP  270
 
 SOLVING FOR HEAD 

 NO OUTPUT CONTROL FOR STRESS PERIOD    2   TIME STEP  271
 
 SOLVING FOR HEAD 

 NO OUTPUT CONTROL FOR STRESS PERIOD    2   TIME STEP  272
 
 SOLVING FOR HEAD 

 NO OUTPUT CONTROL FOR STRESS PERIOD    2   TIME STEP  273
 
 SOLVING FOR HEAD 

 NO OUTPUT CONTROL FOR STRESS PERIOD    2   TIME STEP  274
 
 SOLVING FOR HEAD 

 NO OUTPUT CONTROL FOR STRESS PERIOD    2   TIME STEP  275
 
 SOLVING FOR HEAD 

 NO OUTPUT CONTROL FOR STRESS PERIOD    2   TIME STEP  276
 
 SOLVING FOR HEAD 

 NO OUTPUT CONTROL FOR STRESS PERIOD    2   TIME STEP  277
 
 SOLVING FOR HEAD 

 NO OUTPUT CONTROL FOR STRESS PERIOD    2   TIME STEP  278
 
 SOLVING FOR HEAD 

 NO OUTPUT CONTROL FOR STRESS PERIOD    2   TIME STEP  279
 
 SOLVING FOR HEAD 

 NO OUTPUT CONTROL FOR STRESS PERIOD    2   TIME STEP  280
 
 SOLVING FOR HEAD 

 NO OUTPUT CONTROL FOR STRESS PERIOD    2   TIME STEP  281
 
 SOLVING FOR HEAD 

 NO OUTPUT CONTROL FOR STRESS PERIOD    2   TIME STEP  282
 
 SOLVING FOR HEAD 

 NO OUTPUT CONTROL FOR STRESS PERIOD    2   TIME STEP  283
 
 SOLVING FOR HEAD 

 NO OUTPUT CONTROL FOR STRESS PERIOD    2   TIME STEP  284
 
 SOLVING FOR HEAD 

 NO OUTPUT CONTROL FOR STRESS PERIOD    2   TIME STEP  285
 
 SOLVING FOR HEAD 

 NO OUTPUT CONTROL FOR STRESS PERIOD    2   TIME STEP  286
 
 SOLVING FOR HEAD 

 NO OUTPUT CONTROL FOR STRESS PERIOD    2   TIME STEP  287
 
 SOLVING FOR HEAD 

 NO OUTPUT CONTROL FOR STRESS PERIOD    2   TIME STEP  288
 
 SOLVING FOR HEAD 

 NO OUTPUT CONTROL FOR STRESS PERIOD    2   TIME STEP  289
 
 SOLVING FOR HEAD 

 NO OUTPUT CONTROL FOR STRESS PERIOD    2   TIME STEP  290
 
 SOLVING FOR HEAD 

 NO OUTPUT CONTROL FOR STRESS PERIOD    2   TIME STEP  291
 
 SOLVING FOR HEAD 

 NO OUTPUT CONTROL FOR STRESS PERIOD    2   TIME STEP  292
 
 SOLVING FOR HEAD 

 NO OUTPUT CONTROL FOR STRESS PERIOD    2   TIME STEP  293
 
 SOLVING FOR HEAD 

 NO OUTPUT CONTROL FOR STRESS PERIOD    2   TIME STEP  294
 
 SOLVING FOR HEAD 

 NO OUTPUT CONTROL FOR STRESS PERIOD    2   TIME STEP  295
 
 SOLVING FOR HEAD 

 NO OUTPUT CONTROL FOR STRESS PERIOD    2   TIME STEP  296
 
 SOLVING FOR HEAD 

 NO OUTPUT CONTROL FOR STRESS PERIOD    2   TIME STEP  297
 
 SOLVING FOR HEAD 

 NO OUTPUT CONTROL FOR STRESS PERIOD    2   TIME STEP  298
 
 SOLVING FOR HEAD 

 NO OUTPUT CONTROL FOR STRESS PERIOD    2   TIME STEP  299
 
 SOLVING FOR HEAD 

 NO OUTPUT CONTROL FOR STRESS PERIOD    2   TIME STEP  300
 
 SOLVING FOR HEAD 

 NO OUTPUT CONTROL FOR STRESS PERIOD    2   TIME STEP  301
 
 SOLVING FOR HEAD 

 NO OUTPUT CONTROL FOR STRESS PERIOD    2   TIME STEP  302
 
 SOLVING FOR HEAD 

 NO OUTPUT CONTROL FOR STRESS PERIOD    2   TIME STEP  303
 
 SOLVING FOR HEAD 

 NO OUTPUT CONTROL FOR STRESS PERIOD    2   TIME STEP  304
 
 SOLVING FOR HEAD 

 NO OUTPUT CONTROL FOR STRESS PERIOD    2   TIME STEP  305
 
 SOLVING FOR HEAD 

 NO OUTPUT CONTROL FOR STRESS PERIOD    2   TIME STEP  306
 
 SOLVING FOR HEAD 

 NO OUTPUT CONTROL FOR STRESS PERIOD    2   TIME STEP  307
 
 SOLVING FOR HEAD 

 NO OUTPUT CONTROL FOR STRESS PERIOD    2   TIME STEP  308
 
 SOLVING FOR HEAD 

 NO OUTPUT CONTROL FOR STRESS PERIOD    2   TIME STEP  309
 
 SOLVING FOR HEAD 

 NO OUTPUT CONTROL FOR STRESS PERIOD    2   TIME STEP  310
 
 SOLVING FOR HEAD 

 NO OUTPUT CONTROL FOR STRESS PERIOD    2   TIME STEP  311
 
 SOLVING FOR HEAD 

 NO OUTPUT CONTROL FOR STRESS PERIOD    2   TIME STEP  312
 
 SOLVING FOR HEAD 

 NO OUTPUT CONTROL FOR STRESS PERIOD    2   TIME STEP  313
 
 SOLVING FOR HEAD 

 NO OUTPUT CONTROL FOR STRESS PERIOD    2   TIME STEP  314
 
 SOLVING FOR HEAD 

 NO OUTPUT CONTROL FOR STRESS PERIOD    2   TIME STEP  315
 
 SOLVING FOR HEAD 

 NO OUTPUT CONTROL FOR STRESS PERIOD    2   TIME STEP  316
 
 SOLVING FOR HEAD 

 NO OUTPUT CONTROL FOR STRESS PERIOD    2   TIME STEP  317
 
 SOLVING FOR HEAD 

 NO OUTPUT CONTROL FOR STRESS PERIOD    2   TIME STEP  318
 
 SOLVING FOR HEAD 

 NO OUTPUT CONTROL FOR STRESS PERIOD    2   TIME STEP  319
 
 SOLVING FOR HEAD 

 NO OUTPUT CONTROL FOR STRESS PERIOD    2   TIME STEP  320
 
 SOLVING FOR HEAD 

 NO OUTPUT CONTROL FOR STRESS PERIOD    2   TIME STEP  321
 
 SOLVING FOR HEAD 

 NO OUTPUT CONTROL FOR STRESS PERIOD    2   TIME STEP  322
 
 SOLVING FOR HEAD 

 NO OUTPUT CONTROL FOR STRESS PERIOD    2   TIME STEP  323
 
 SOLVING FOR HEAD 

 NO OUTPUT CONTROL FOR STRESS PERIOD    2   TIME STEP  324
 
 SOLVING FOR HEAD 

 NO OUTPUT CONTROL FOR STRESS PERIOD    2   TIME STEP  325
 
 SOLVING FOR HEAD 

 NO OUTPUT CONTROL FOR STRESS PERIOD    2   TIME STEP  326
 
 SOLVING FOR HEAD 

 NO OUTPUT CONTROL FOR STRESS PERIOD    2   TIME STEP  327
 
 SOLVING FOR HEAD 

 NO OUTPUT CONTROL FOR STRESS PERIOD    2   TIME STEP  328
 
 SOLVING FOR HEAD 

 NO OUTPUT CONTROL FOR STRESS PERIOD    2   TIME STEP  329
 
 SOLVING FOR HEAD 

 NO OUTPUT CONTROL FOR STRESS PERIOD    2   TIME STEP  330
 
 SOLVING FOR HEAD 

 NO OUTPUT CONTROL FOR STRESS PERIOD    2   TIME STEP  331
 
 SOLVING FOR HEAD 

 NO OUTPUT CONTROL FOR STRESS PERIOD    2   TIME STEP  332
 
 SOLVING FOR HEAD 

 NO OUTPUT CONTROL FOR STRESS PERIOD    2   TIME STEP  333
 
 SOLVING FOR HEAD 

 NO OUTPUT CONTROL FOR STRESS PERIOD    2   TIME STEP  334
 
 SOLVING FOR HEAD 

 NO OUTPUT CONTROL FOR STRESS PERIOD    2   TIME STEP  335
 
 SOLVING FOR HEAD 

 NO OUTPUT CONTROL FOR STRESS PERIOD    2   TIME STEP  336
 
 SOLVING FOR HEAD 

 NO OUTPUT CONTROL FOR STRESS PERIOD    2   TIME STEP  337
 
 SOLVING FOR HEAD 

 NO OUTPUT CONTROL FOR STRESS PERIOD    2   TIME STEP  338
 
 SOLVING FOR HEAD 

 NO OUTPUT CONTROL FOR STRESS PERIOD    2   TIME STEP  339
 
 SOLVING FOR HEAD 

 NO OUTPUT CONTROL FOR STRESS PERIOD    2   TIME STEP  340
 
 SOLVING FOR HEAD 

 NO OUTPUT CONTROL FOR STRESS PERIOD    2   TIME STEP  341
 
 SOLVING FOR HEAD 

 NO OUTPUT CONTROL FOR STRESS PERIOD    2   TIME STEP  342
 
 SOLVING FOR HEAD 

 NO OUTPUT CONTROL FOR STRESS PERIOD    2   TIME STEP  343
 
 SOLVING FOR HEAD 

 NO OUTPUT CONTROL FOR STRESS PERIOD    2   TIME STEP  344
 
 SOLVING FOR HEAD 

 NO OUTPUT CONTROL FOR STRESS PERIOD    2   TIME STEP  345
 
 SOLVING FOR HEAD 

 NO OUTPUT CONTROL FOR STRESS PERIOD    2   TIME STEP  346
 
 SOLVING FOR HEAD 

 NO OUTPUT CONTROL FOR STRESS PERIOD    2   TIME STEP  347
 
 SOLVING FOR HEAD 

 NO OUTPUT CONTROL FOR STRESS PERIOD    2   TIME STEP  348
 
 SOLVING FOR HEAD 

 NO OUTPUT CONTROL FOR STRESS PERIOD    2   TIME STEP  349
 
 SOLVING FOR HEAD 

 NO OUTPUT CONTROL FOR STRESS PERIOD    2   TIME STEP  350
 
 SOLVING FOR HEAD 

 NO OUTPUT CONTROL FOR STRESS PERIOD    2   TIME STEP  351
 
 SOLVING FOR HEAD 

 NO OUTPUT CONTROL FOR STRESS PERIOD    2   TIME STEP  352
 
 SOLVING FOR HEAD 

 NO OUTPUT CONTROL FOR STRESS PERIOD    2   TIME STEP  353
 
 SOLVING FOR HEAD 

 NO OUTPUT CONTROL FOR STRESS PERIOD    2   TIME STEP  354
 
 SOLVING FOR HEAD 

 NO OUTPUT CONTROL FOR STRESS PERIOD    2   TIME STEP  355
 
 SOLVING FOR HEAD 

 NO OUTPUT CONTROL FOR STRESS PERIOD    2   TIME STEP  356
 
 SOLVING FOR HEAD 

 NO OUTPUT CONTROL FOR STRESS PERIOD    2   TIME STEP  357
 
 SOLVING FOR HEAD 

 NO OUTPUT CONTROL FOR STRESS PERIOD    2   TIME STEP  358
 
 SOLVING FOR HEAD 

 NO OUTPUT CONTROL FOR STRESS PERIOD    2   TIME STEP  359
 
 SOLVING FOR HEAD 

 NO OUTPUT CONTROL FOR STRESS PERIOD    2   TIME STEP  360
 
 SOLVING FOR HEAD 

 NO OUTPUT CONTROL FOR STRESS PERIOD    2   TIME STEP  361
 
 SOLVING FOR HEAD 

 NO OUTPUT CONTROL FOR STRESS PERIOD    2   TIME STEP  362
 
 SOLVING FOR HEAD 

 NO OUTPUT CONTROL FOR STRESS PERIOD    2   TIME STEP  363
 
 SOLVING FOR HEAD 

 NO OUTPUT CONTROL FOR STRESS PERIOD    2   TIME STEP  364
 
 SOLVING FOR HEAD 

 NO OUTPUT CONTROL FOR STRESS PERIOD    2   TIME STEP  365
 
 SOLVING FOR HEAD 

 NO OUTPUT CONTROL FOR STRESS PERIOD    2   TIME STEP  366
 
 SOLVING FOR HEAD 

 NO OUTPUT CONTROL FOR STRESS PERIOD    2   TIME STEP  367
 
 SOLVING FOR HEAD 

 NO OUTPUT CONTROL FOR STRESS PERIOD    2   TIME STEP  368
 
 SOLVING FOR HEAD 

 NO OUTPUT CONTROL FOR STRESS PERIOD    2   TIME STEP  369
 
 SOLVING FOR HEAD 

 NO OUTPUT CONTROL FOR STRESS PERIOD    2   TIME STEP  370
 
 SOLVING FOR HEAD 

 NO OUTPUT CONTROL FOR STRESS PERIOD    2   TIME STEP  371
 
 SOLVING FOR HEAD 

 NO OUTPUT CONTROL FOR STRESS PERIOD    2   TIME STEP  372
 
 SOLVING FOR HEAD 

 NO OUTPUT CONTROL FOR STRESS PERIOD    2   TIME STEP  373
 
 SOLVING FOR HEAD 

 NO OUTPUT CONTROL FOR STRESS PERIOD    2   TIME STEP  374
 
 SOLVING FOR HEAD 

 NO OUTPUT CONTROL FOR STRESS PERIOD    2   TIME STEP  375
 
 SOLVING FOR HEAD 

 NO OUTPUT CONTROL FOR STRESS PERIOD    2   TIME STEP  376
 
 SOLVING FOR HEAD 

 NO OUTPUT CONTROL FOR STRESS PERIOD    2   TIME STEP  377
 
 SOLVING FOR HEAD 

 NO OUTPUT CONTROL FOR STRESS PERIOD    2   TIME STEP  378
 
 SOLVING FOR HEAD 

 NO OUTPUT CONTROL FOR STRESS PERIOD    2   TIME STEP  379
 
 SOLVING FOR HEAD 

 NO OUTPUT CONTROL FOR STRESS PERIOD    2   TIME STEP  380
 
 SOLVING FOR HEAD 

 NO OUTPUT CONTROL FOR STRESS PERIOD    2   TIME STEP  381
 
 SOLVING FOR HEAD 

 NO OUTPUT CONTROL FOR STRESS PERIOD    2   TIME STEP  382
 
 SOLVING FOR HEAD 

 NO OUTPUT CONTROL FOR STRESS PERIOD    2   TIME STEP  383
 
 SOLVING FOR HEAD 

 NO OUTPUT CONTROL FOR STRESS PERIOD    2   TIME STEP  384
 
 SOLVING FOR HEAD 

 NO OUTPUT CONTROL FOR STRESS PERIOD    2   TIME STEP  385
 
 SOLVING FOR HEAD 

 NO OUTPUT CONTROL FOR STRESS PERIOD    2   TIME STEP  386
 
 SOLVING FOR HEAD 

 NO OUTPUT CONTROL FOR STRESS PERIOD    2   TIME STEP  387
 
 SOLVING FOR HEAD 

 NO OUTPUT CONTROL FOR STRESS PERIOD    2   TIME STEP  388
 
 SOLVING FOR HEAD 

 NO OUTPUT CONTROL FOR STRESS PERIOD    2   TIME STEP  389
 
 SOLVING FOR HEAD 

 NO OUTPUT CONTROL FOR STRESS PERIOD    2   TIME STEP  390
 
 SOLVING FOR HEAD 

 NO OUTPUT CONTROL FOR STRESS PERIOD    2   TIME STEP  391
 
 SOLVING FOR HEAD 

 NO OUTPUT CONTROL FOR STRESS PERIOD    2   TIME STEP  392
 
 SOLVING FOR HEAD 

 NO OUTPUT CONTROL FOR STRESS PERIOD    2   TIME STEP  393
 
 SOLVING FOR HEAD 

 NO OUTPUT CONTROL FOR STRESS PERIOD    2   TIME STEP  394
 
 SOLVING FOR HEAD 

 NO OUTPUT CONTROL FOR STRESS PERIOD    2   TIME STEP  395
 
 SOLVING FOR HEAD 

 NO OUTPUT CONTROL FOR STRESS PERIOD    2   TIME STEP  396
 
 SOLVING FOR HEAD 

 NO OUTPUT CONTROL FOR STRESS PERIOD    2   TIME STEP  397
 
 SOLVING FOR HEAD 

 NO OUTPUT CONTROL FOR STRESS PERIOD    2   TIME STEP  398
 
 SOLVING FOR HEAD 

 NO OUTPUT CONTROL FOR STRESS PERIOD    2   TIME STEP  399
 
 SOLVING FOR HEAD 

 NO OUTPUT CONTROL FOR STRESS PERIOD    2   TIME STEP  400
 
 SOLVING FOR HEAD 

 NO OUTPUT CONTROL FOR STRESS PERIOD    2   TIME STEP  401
 
 SOLVING FOR HEAD 

 NO OUTPUT CONTROL FOR STRESS PERIOD    2   TIME STEP  402
 
 SOLVING FOR HEAD 

 NO OUTPUT CONTROL FOR STRESS PERIOD    2   TIME STEP  403
 
 SOLVING FOR HEAD 

 NO OUTPUT CONTROL FOR STRESS PERIOD    2   TIME STEP  404
 
 SOLVING FOR HEAD 

 NO OUTPUT CONTROL FOR STRESS PERIOD    2   TIME STEP  405
 
 SOLVING FOR HEAD 

 NO OUTPUT CONTROL FOR STRESS PERIOD    2   TIME STEP  406
 
 SOLVING FOR HEAD 

 NO OUTPUT CONTROL FOR STRESS PERIOD    2   TIME STEP  407
 
 SOLVING FOR HEAD 

 NO OUTPUT CONTROL FOR STRESS PERIOD    2   TIME STEP  408
 
 SOLVING FOR HEAD 

 NO OUTPUT CONTROL FOR STRESS PERIOD    2   TIME STEP  409
 
 SOLVING FOR HEAD 

 NO OUTPUT CONTROL FOR STRESS PERIOD    2   TIME STEP  410
 
 SOLVING FOR HEAD 

 NO OUTPUT CONTROL FOR STRESS PERIOD    2   TIME STEP  411
 
 SOLVING FOR HEAD 

 NO OUTPUT CONTROL FOR STRESS PERIOD    2   TIME STEP  412
 
 SOLVING FOR HEAD 

 NO OUTPUT CONTROL FOR STRESS PERIOD    2   TIME STEP  413
 
 SOLVING FOR HEAD 

 NO OUTPUT CONTROL FOR STRESS PERIOD    2   TIME STEP  414
 
 SOLVING FOR HEAD 

 NO OUTPUT CONTROL FOR STRESS PERIOD    2   TIME STEP  415
 
 SOLVING FOR HEAD 

 NO OUTPUT CONTROL FOR STRESS PERIOD    2   TIME STEP  416
 
 SOLVING FOR HEAD 

 NO OUTPUT CONTROL FOR STRESS PERIOD    2   TIME STEP  417
 
 SOLVING FOR HEAD 

 NO OUTPUT CONTROL FOR STRESS PERIOD    2   TIME STEP  418
 
 SOLVING FOR HEAD 

 NO OUTPUT CONTROL FOR STRESS PERIOD    2   TIME STEP  419
 
 SOLVING FOR HEAD 

 NO OUTPUT CONTROL FOR STRESS PERIOD    2   TIME STEP  420
 
 SOLVING FOR HEAD 

 NO OUTPUT CONTROL FOR STRESS PERIOD    2   TIME STEP  421
 
 SOLVING FOR HEAD 

 NO OUTPUT CONTROL FOR STRESS PERIOD    2   TIME STEP  422
 
 SOLVING FOR HEAD 

 NO OUTPUT CONTROL FOR STRESS PERIOD    2   TIME STEP  423
 
 SOLVING FOR HEAD 

 NO OUTPUT CONTROL FOR STRESS PERIOD    2   TIME STEP  424
 
 SOLVING FOR HEAD 

 NO OUTPUT CONTROL FOR STRESS PERIOD    2   TIME STEP  425
 
 SOLVING FOR HEAD 

 NO OUTPUT CONTROL FOR STRESS PERIOD    2   TIME STEP  426
 
 SOLVING FOR HEAD 

 NO OUTPUT CONTROL FOR STRESS PERIOD    2   TIME STEP  427
 
 SOLVING FOR HEAD 

 NO OUTPUT CONTROL FOR STRESS PERIOD    2   TIME STEP  428
 
 SOLVING FOR HEAD 

 NO OUTPUT CONTROL FOR STRESS PERIOD    2   TIME STEP  429
 
 SOLVING FOR HEAD 

 NO OUTPUT CONTROL FOR STRESS PERIOD    2   TIME STEP  430
 
 SOLVING FOR HEAD 

 NO OUTPUT CONTROL FOR STRESS PERIOD    2   TIME STEP  431
 
 SOLVING FOR HEAD 

 NO OUTPUT CONTROL FOR STRESS PERIOD    2   TIME STEP  432
 
 SOLVING FOR HEAD 

 NO OUTPUT CONTROL FOR STRESS PERIOD    2   TIME STEP  433
 
 SOLVING FOR HEAD 

 NO OUTPUT CONTROL FOR STRESS PERIOD    2   TIME STEP  434
 
 SOLVING FOR HEAD 

 NO OUTPUT CONTROL FOR STRESS PERIOD    2   TIME STEP  435
 
 SOLVING FOR HEAD 

 NO OUTPUT CONTROL FOR STRESS PERIOD    2   TIME STEP  436
 
 SOLVING FOR HEAD 

 NO OUTPUT CONTROL FOR STRESS PERIOD    2   TIME STEP  437
 
 SOLVING FOR HEAD 

 NO OUTPUT CONTROL FOR STRESS PERIOD    2   TIME STEP  438
 
 SOLVING FOR HEAD 

 NO OUTPUT CONTROL FOR STRESS PERIOD    2   TIME STEP  439
 
 SOLVING FOR HEAD 

 NO OUTPUT CONTROL FOR STRESS PERIOD    2   TIME STEP  440
 
 SOLVING FOR HEAD 

 NO OUTPUT CONTROL FOR STRESS PERIOD    2   TIME STEP  441
 
 SOLVING FOR HEAD 

 NO OUTPUT CONTROL FOR STRESS PERIOD    2   TIME STEP  442
 
 SOLVING FOR HEAD 

 NO OUTPUT CONTROL FOR STRESS PERIOD    2   TIME STEP  443
 
 SOLVING FOR HEAD 

 NO OUTPUT CONTROL FOR STRESS PERIOD    2   TIME STEP  444
 
 SOLVING FOR HEAD 

 NO OUTPUT CONTROL FOR STRESS PERIOD    2   TIME STEP  445
 
 SOLVING FOR HEAD 

 NO OUTPUT CONTROL FOR STRESS PERIOD    2   TIME STEP  446
 
 SOLVING FOR HEAD 

 NO OUTPUT CONTROL FOR STRESS PERIOD    2   TIME STEP  447
 
 SOLVING FOR HEAD 

 NO OUTPUT CONTROL FOR STRESS PERIOD    2   TIME STEP  448
 
 SOLVING FOR HEAD 

 NO OUTPUT CONTROL FOR STRESS PERIOD    2   TIME STEP  449
 
 SOLVING FOR HEAD 

 NO OUTPUT CONTROL FOR STRESS PERIOD    2   TIME STEP  450
 
 SOLVING FOR HEAD 

 NO OUTPUT CONTROL FOR STRESS PERIOD    2   TIME STEP  451
 
 SOLVING FOR HEAD 

 NO OUTPUT CONTROL FOR STRESS PERIOD    2   TIME STEP  452
 
 SOLVING FOR HEAD 

 NO OUTPUT CONTROL FOR STRESS PERIOD    2   TIME STEP  453
 
 SOLVING FOR HEAD 

 NO OUTPUT CONTROL FOR STRESS PERIOD    2   TIME STEP  454
 
 SOLVING FOR HEAD 

 NO OUTPUT CONTROL FOR STRESS PERIOD    2   TIME STEP  455
 
 SOLVING FOR HEAD 

 NO OUTPUT CONTROL FOR STRESS PERIOD    2   TIME STEP  456
 
 SOLVING FOR HEAD 

 NO OUTPUT CONTROL FOR STRESS PERIOD    2   TIME STEP  457
 
 SOLVING FOR HEAD 

 NO OUTPUT CONTROL FOR STRESS PERIOD    2   TIME STEP  458
 
 SOLVING FOR HEAD 

 NO OUTPUT CONTROL FOR STRESS PERIOD    2   TIME STEP  459
 
 SOLVING FOR HEAD 

 NO OUTPUT CONTROL FOR STRESS PERIOD    2   TIME STEP  460
 
 SOLVING FOR HEAD 

 NO OUTPUT CONTROL FOR STRESS PERIOD    2   TIME STEP  461
 
 SOLVING FOR HEAD 

 NO OUTPUT CONTROL FOR STRESS PERIOD    2   TIME STEP  462
 
 SOLVING FOR HEAD 

 NO OUTPUT CONTROL FOR STRESS PERIOD    2   TIME STEP  463
 
 SOLVING FOR HEAD 

 NO OUTPUT CONTROL FOR STRESS PERIOD    2   TIME STEP  464
 
 SOLVING FOR HEAD 

 NO OUTPUT CONTROL FOR STRESS PERIOD    2   TIME STEP  465
 
 SOLVING FOR HEAD 

 NO OUTPUT CONTROL FOR STRESS PERIOD    2   TIME STEP  466
 
 SOLVING FOR HEAD 

 NO OUTPUT CONTROL FOR STRESS PERIOD    2   TIME STEP  467
 
 SOLVING FOR HEAD 

 NO OUTPUT CONTROL FOR STRESS PERIOD    2   TIME STEP  468
 
 SOLVING FOR HEAD 

 NO OUTPUT CONTROL FOR STRESS PERIOD    2   TIME STEP  469
 
 SOLVING FOR HEAD 

 NO OUTPUT CONTROL FOR STRESS PERIOD    2   TIME STEP  470
 
 SOLVING FOR HEAD 

 NO OUTPUT CONTROL FOR STRESS PERIOD    2   TIME STEP  471
 
 SOLVING FOR HEAD 

 NO OUTPUT CONTROL FOR STRESS PERIOD    2   TIME STEP  472
 
 SOLVING FOR HEAD 

 NO OUTPUT CONTROL FOR STRESS PERIOD    2   TIME STEP  473
 
 SOLVING FOR HEAD 

 NO OUTPUT CONTROL FOR STRESS PERIOD    2   TIME STEP  474
 
 SOLVING FOR HEAD 

 NO OUTPUT CONTROL FOR STRESS PERIOD    2   TIME STEP  475
 
 SOLVING FOR HEAD 

 NO OUTPUT CONTROL FOR STRESS PERIOD    2   TIME STEP  476
 
 SOLVING FOR HEAD 

 NO OUTPUT CONTROL FOR STRESS PERIOD    2   TIME STEP  477
 
 SOLVING FOR HEAD 

 NO OUTPUT CONTROL FOR STRESS PERIOD    2   TIME STEP  478
 
 SOLVING FOR HEAD 

 NO OUTPUT CONTROL FOR STRESS PERIOD    2   TIME STEP  479
 
 SOLVING FOR HEAD 

 NO OUTPUT CONTROL FOR STRESS PERIOD    2   TIME STEP  480
 
 SOLVING FOR HEAD 

 NO OUTPUT CONTROL FOR STRESS PERIOD    2   TIME STEP  481
 
 SOLVING FOR HEAD 

 NO OUTPUT CONTROL FOR STRESS PERIOD    2   TIME STEP  482
 
 SOLVING FOR HEAD 

 NO OUTPUT CONTROL FOR STRESS PERIOD    2   TIME STEP  483
 
 SOLVING FOR HEAD 

 NO OUTPUT CONTROL FOR STRESS PERIOD    2   TIME STEP  484
 
 SOLVING FOR HEAD 

 NO OUTPUT CONTROL FOR STRESS PERIOD    2   TIME STEP  485
 
 SOLVING FOR HEAD 

 NO OUTPUT CONTROL FOR STRESS PERIOD    2   TIME STEP  486
 
 SOLVING FOR HEAD 

 NO OUTPUT CONTROL FOR STRESS PERIOD    2   TIME STEP  487
 
 SOLVING FOR HEAD 

 NO OUTPUT CONTROL FOR STRESS PERIOD    2   TIME STEP  488
 
 SOLVING FOR HEAD 

 NO OUTPUT CONTROL FOR STRESS PERIOD    2   TIME STEP  489
 
 SOLVING FOR HEAD 

 NO OUTPUT CONTROL FOR STRESS PERIOD    2   TIME STEP  490
 
 SOLVING FOR HEAD 

 NO OUTPUT CONTROL FOR STRESS PERIOD    2   TIME STEP  491
 
 SOLVING FOR HEAD 

 NO OUTPUT CONTROL FOR STRESS PERIOD    2   TIME STEP  492
 
 SOLVING FOR HEAD 

 NO OUTPUT CONTROL FOR STRESS PERIOD    2   TIME STEP  493
 
 SOLVING FOR HEAD 

 NO OUTPUT CONTROL FOR STRESS PERIOD    2   TIME STEP  494
 
 SOLVING FOR HEAD 

 NO OUTPUT CONTROL FOR STRESS PERIOD    2   TIME STEP  495
 
 SOLVING FOR HEAD 

 NO OUTPUT CONTROL FOR STRESS PERIOD    2   TIME STEP  496
 
 SOLVING FOR HEAD 

 NO OUTPUT CONTROL FOR STRESS PERIOD    2   TIME STEP  497
 
 SOLVING FOR HEAD 

 NO OUTPUT CONTROL FOR STRESS PERIOD    2   TIME STEP  498
 
 SOLVING FOR HEAD 

 NO OUTPUT CONTROL FOR STRESS PERIOD    2   TIME STEP  499
 
 SOLVING FOR HEAD 

 NO OUTPUT CONTROL FOR STRESS PERIOD    2   TIME STEP  500
 
 SOLVING FOR HEAD 

 NO OUTPUT CONTROL FOR STRESS PERIOD    2   TIME STEP  501
 
 SOLVING FOR HEAD 

 NO OUTPUT CONTROL FOR STRESS PERIOD    2   TIME STEP  502
 
 SOLVING FOR HEAD 

 NO OUTPUT CONTROL FOR STRESS PERIOD    2   TIME STEP  503
 
 SOLVING FOR HEAD 

 NO OUTPUT CONTROL FOR STRESS PERIOD    2   TIME STEP  504
 
 SOLVING FOR HEAD 

 NO OUTPUT CONTROL FOR STRESS PERIOD    2   TIME STEP  505
 
 SOLVING FOR HEAD 

 NO OUTPUT CONTROL FOR STRESS PERIOD    2   TIME STEP  506
 
 SOLVING FOR HEAD 

 NO OUTPUT CONTROL FOR STRESS PERIOD    2   TIME STEP  507
 
 SOLVING FOR HEAD 

 NO OUTPUT CONTROL FOR STRESS PERIOD    2   TIME STEP  508
 
 SOLVING FOR HEAD 

 NO OUTPUT CONTROL FOR STRESS PERIOD    2   TIME STEP  509
 
 SOLVING FOR HEAD 

 NO OUTPUT CONTROL FOR STRESS PERIOD    2   TIME STEP  510
 
 SOLVING FOR HEAD 

 NO OUTPUT CONTROL FOR STRESS PERIOD    2   TIME STEP  511
 
 SOLVING FOR HEAD 

 NO OUTPUT CONTROL FOR STRESS PERIOD    2   TIME STEP  512
 
 SOLVING FOR HEAD 

 NO OUTPUT CONTROL FOR STRESS PERIOD    2   TIME STEP  513
 
 SOLVING FOR HEAD 

 NO OUTPUT CONTROL FOR STRESS PERIOD    2   TIME STEP  514
 
 SOLVING FOR HEAD 

 NO OUTPUT CONTROL FOR STRESS PERIOD    2   TIME STEP  515
 
 SOLVING FOR HEAD 

 NO OUTPUT CONTROL FOR STRESS PERIOD    2   TIME STEP  516
 
 SOLVING FOR HEAD 

 NO OUTPUT CONTROL FOR STRESS PERIOD    2   TIME STEP  517
 
 SOLVING FOR HEAD 

 NO OUTPUT CONTROL FOR STRESS PERIOD    2   TIME STEP  518
 
 SOLVING FOR HEAD 

 NO OUTPUT CONTROL FOR STRESS PERIOD    2   TIME STEP  519
 
 SOLVING FOR HEAD 

 NO OUTPUT CONTROL FOR STRESS PERIOD    2   TIME STEP  520
 
 SOLVING FOR HEAD 

 NO OUTPUT CONTROL FOR STRESS PERIOD    2   TIME STEP  521
 
 SOLVING FOR HEAD 

 NO OUTPUT CONTROL FOR STRESS PERIOD    2   TIME STEP  522
 
 SOLVING FOR HEAD 

 NO OUTPUT CONTROL FOR STRESS PERIOD    2   TIME STEP  523
 
 SOLVING FOR HEAD 

 NO OUTPUT CONTROL FOR STRESS PERIOD    2   TIME STEP  524
 
 SOLVING FOR HEAD 

 NO OUTPUT CONTROL FOR STRESS PERIOD    2   TIME STEP  525
 
 SOLVING FOR HEAD 

 NO OUTPUT CONTROL FOR STRESS PERIOD    2   TIME STEP  526
 
 SOLVING FOR HEAD 

 NO OUTPUT CONTROL FOR STRESS PERIOD    2   TIME STEP  527
 
 SOLVING FOR HEAD 

 NO OUTPUT CONTROL FOR STRESS PERIOD    2   TIME STEP  528
 
 SOLVING FOR HEAD 

 NO OUTPUT CONTROL FOR STRESS PERIOD    2   TIME STEP  529
 
 SOLVING FOR HEAD 

 NO OUTPUT CONTROL FOR STRESS PERIOD    2   TIME STEP  530
 
 SOLVING FOR HEAD 

 NO OUTPUT CONTROL FOR STRESS PERIOD    2   TIME STEP  531
 
 SOLVING FOR HEAD 

 NO OUTPUT CONTROL FOR STRESS PERIOD    2   TIME STEP  532
 
 SOLVING FOR HEAD 

 NO OUTPUT CONTROL FOR STRESS PERIOD    2   TIME STEP  533
 
 SOLVING FOR HEAD 

 NO OUTPUT CONTROL FOR STRESS PERIOD    2   TIME STEP  534
 
 SOLVING FOR HEAD 

 NO OUTPUT CONTROL FOR STRESS PERIOD    2   TIME STEP  535
 
 SOLVING FOR HEAD 

 NO OUTPUT CONTROL FOR STRESS PERIOD    2   TIME STEP  536
 
 SOLVING FOR HEAD 

 NO OUTPUT CONTROL FOR STRESS PERIOD    2   TIME STEP  537
 
 SOLVING FOR HEAD 

 NO OUTPUT CONTROL FOR STRESS PERIOD    2   TIME STEP  538
 
 SOLVING FOR HEAD 

 NO OUTPUT CONTROL FOR STRESS PERIOD    2   TIME STEP  539
 
 SOLVING FOR HEAD 

 NO OUTPUT CONTROL FOR STRESS PERIOD    2   TIME STEP  540
 
 SOLVING FOR HEAD 

 NO OUTPUT CONTROL FOR STRESS PERIOD    2   TIME STEP  541
 
 SOLVING FOR HEAD 

 NO OUTPUT CONTROL FOR STRESS PERIOD    2   TIME STEP  542
 
 SOLVING FOR HEAD 

 NO OUTPUT CONTROL FOR STRESS PERIOD    2   TIME STEP  543
 
 SOLVING FOR HEAD 

 NO OUTPUT CONTROL FOR STRESS PERIOD    2   TIME STEP  544
 
 SOLVING FOR HEAD 

 NO OUTPUT CONTROL FOR STRESS PERIOD    2   TIME STEP  545
 
 SOLVING FOR HEAD 

 NO OUTPUT CONTROL FOR STRESS PERIOD    2   TIME STEP  546
 
 SOLVING FOR HEAD 

 NO OUTPUT CONTROL FOR STRESS PERIOD    2   TIME STEP  547
 
 SOLVING FOR HEAD 

 NO OUTPUT CONTROL FOR STRESS PERIOD    2   TIME STEP  548
 
 SOLVING FOR HEAD 

 NO OUTPUT CONTROL FOR STRESS PERIOD    2   TIME STEP  549
 
 SOLVING FOR HEAD 

 NO OUTPUT CONTROL FOR STRESS PERIOD    2   TIME STEP  550
 
 SOLVING FOR HEAD 

 NO OUTPUT CONTROL FOR STRESS PERIOD    2   TIME STEP  551
 
 SOLVING FOR HEAD 

 NO OUTPUT CONTROL FOR STRESS PERIOD    2   TIME STEP  552
 
 SOLVING FOR HEAD 

 NO OUTPUT CONTROL FOR STRESS PERIOD    2   TIME STEP  553
 
 SOLVING FOR HEAD 

 NO OUTPUT CONTROL FOR STRESS PERIOD    2   TIME STEP  554
 
 SOLVING FOR HEAD 

 NO OUTPUT CONTROL FOR STRESS PERIOD    2   TIME STEP  555
 
 SOLVING FOR HEAD 

 NO OUTPUT CONTROL FOR STRESS PERIOD    2   TIME STEP  556
 
 SOLVING FOR HEAD 

 NO OUTPUT CONTROL FOR STRESS PERIOD    2   TIME STEP  557
 
 SOLVING FOR HEAD 

 NO OUTPUT CONTROL FOR STRESS PERIOD    2   TIME STEP  558
 
 SOLVING FOR HEAD 

 NO OUTPUT CONTROL FOR STRESS PERIOD    2   TIME STEP  559
 
 SOLVING FOR HEAD 

 NO OUTPUT CONTROL FOR STRESS PERIOD    2   TIME STEP  560
 
 SOLVING FOR HEAD 

 NO OUTPUT CONTROL FOR STRESS PERIOD    2   TIME STEP  561
 
 SOLVING FOR HEAD 

 NO OUTPUT CONTROL FOR STRESS PERIOD    2   TIME STEP  562
 
 SOLVING FOR HEAD 

 NO OUTPUT CONTROL FOR STRESS PERIOD    2   TIME STEP  563
 
 SOLVING FOR HEAD 

 NO OUTPUT CONTROL FOR STRESS PERIOD    2   TIME STEP  564
 
 SOLVING FOR HEAD 

 NO OUTPUT CONTROL FOR STRESS PERIOD    2   TIME STEP  565
 
 SOLVING FOR HEAD 

 NO OUTPUT CONTROL FOR STRESS PERIOD    2   TIME STEP  566
 
 SOLVING FOR HEAD 

 NO OUTPUT CONTROL FOR STRESS PERIOD    2   TIME STEP  567
 
 SOLVING FOR HEAD 

 NO OUTPUT CONTROL FOR STRESS PERIOD    2   TIME STEP  568
 
 SOLVING FOR HEAD 

 NO OUTPUT CONTROL FOR STRESS PERIOD    2   TIME STEP  569
 
 SOLVING FOR HEAD 

 NO OUTPUT CONTROL FOR STRESS PERIOD    2   TIME STEP  570
 
 SOLVING FOR HEAD 

 NO OUTPUT CONTROL FOR STRESS PERIOD    2   TIME STEP  571
 
 SOLVING FOR HEAD 

 NO OUTPUT CONTROL FOR STRESS PERIOD    2   TIME STEP  572
 
 SOLVING FOR HEAD 

 NO OUTPUT CONTROL FOR STRESS PERIOD    2   TIME STEP  573
 
 SOLVING FOR HEAD 

 NO OUTPUT CONTROL FOR STRESS PERIOD    2   TIME STEP  574
 
 SOLVING FOR HEAD 

 NO OUTPUT CONTROL FOR STRESS PERIOD    2   TIME STEP  575
 
 SOLVING FOR HEAD 

 NO OUTPUT CONTROL FOR STRESS PERIOD    2   TIME STEP  576
 
 SOLVING FOR HEAD 

 NO OUTPUT CONTROL FOR STRESS PERIOD    2   TIME STEP  577
 
 SOLVING FOR HEAD 

 NO OUTPUT CONTROL FOR STRESS PERIOD    2   TIME STEP  578
 
 SOLVING FOR HEAD 

 NO OUTPUT CONTROL FOR STRESS PERIOD    2   TIME STEP  579
 
 SOLVING FOR HEAD 

 NO OUTPUT CONTROL FOR STRESS PERIOD    2   TIME STEP  580
 
 SOLVING FOR HEAD 

 NO OUTPUT CONTROL FOR STRESS PERIOD    2   TIME STEP  581
 
 SOLVING FOR HEAD 

 NO OUTPUT CONTROL FOR STRESS PERIOD    2   TIME STEP  582
 
 SOLVING FOR HEAD 

 NO OUTPUT CONTROL FOR STRESS PERIOD    2   TIME STEP  583
 
 SOLVING FOR HEAD 

 NO OUTPUT CONTROL FOR STRESS PERIOD    2   TIME STEP  584
 
 SOLVING FOR HEAD 

 NO OUTPUT CONTROL FOR STRESS PERIOD    2   TIME STEP  585
 
 SOLVING FOR HEAD 

 NO OUTPUT CONTROL FOR STRESS PERIOD    2   TIME STEP  586
 
 SOLVING FOR HEAD 

 NO OUTPUT CONTROL FOR STRESS PERIOD    2   TIME STEP  587
 
 SOLVING FOR HEAD 

 NO OUTPUT CONTROL FOR STRESS PERIOD    2   TIME STEP  588
 
 SOLVING FOR HEAD 

 NO OUTPUT CONTROL FOR STRESS PERIOD    2   TIME STEP  589
 
 SOLVING FOR HEAD 

 NO OUTPUT CONTROL FOR STRESS PERIOD    2   TIME STEP  590
 
 SOLVING FOR HEAD 

 NO OUTPUT CONTROL FOR STRESS PERIOD    2   TIME STEP  591
 
 SOLVING FOR HEAD 

 NO OUTPUT CONTROL FOR STRESS PERIOD    2   TIME STEP  592
 
 SOLVING FOR HEAD 

 NO OUTPUT CONTROL FOR STRESS PERIOD    2   TIME STEP  593
 
 SOLVING FOR HEAD 

 NO OUTPUT CONTROL FOR STRESS PERIOD    2   TIME STEP  594
 
 SOLVING FOR HEAD 

 NO OUTPUT CONTROL FOR STRESS PERIOD    2   TIME STEP  595
 
 SOLVING FOR HEAD 

 NO OUTPUT CONTROL FOR STRESS PERIOD    2   TIME STEP  596
 
 SOLVING FOR HEAD 

 NO OUTPUT CONTROL FOR STRESS PERIOD    2   TIME STEP  597
 
 SOLVING FOR HEAD 

 NO OUTPUT CONTROL FOR STRESS PERIOD    2   TIME STEP  598
 
 SOLVING FOR HEAD 

 NO OUTPUT CONTROL FOR STRESS PERIOD    2   TIME STEP  599
 
 SOLVING FOR HEAD 

 NO OUTPUT CONTROL FOR STRESS PERIOD    2   TIME STEP  600
 
 SOLVING FOR HEAD 

 NO OUTPUT CONTROL FOR STRESS PERIOD    2   TIME STEP  601
 
 SOLVING FOR HEAD 

 NO OUTPUT CONTROL FOR STRESS PERIOD    2   TIME STEP  602
 
 SOLVING FOR HEAD 

 NO OUTPUT CONTROL FOR STRESS PERIOD    2   TIME STEP  603
 
 SOLVING FOR HEAD 

 NO OUTPUT CONTROL FOR STRESS PERIOD    2   TIME STEP  604
 
 SOLVING FOR HEAD 

 NO OUTPUT CONTROL FOR STRESS PERIOD    2   TIME STEP  605
 
 SOLVING FOR HEAD 

 NO OUTPUT CONTROL FOR STRESS PERIOD    2   TIME STEP  606
 
 SOLVING FOR HEAD 

 NO OUTPUT CONTROL FOR STRESS PERIOD    2   TIME STEP  607
 
 SOLVING FOR HEAD 

 NO OUTPUT CONTROL FOR STRESS PERIOD    2   TIME STEP  608
 
 SOLVING FOR HEAD 

 NO OUTPUT CONTROL FOR STRESS PERIOD    2   TIME STEP  609
 
 SOLVING FOR HEAD 

 NO OUTPUT CONTROL FOR STRESS PERIOD    2   TIME STEP  610
 
 SOLVING FOR HEAD 

 NO OUTPUT CONTROL FOR STRESS PERIOD    2   TIME STEP  611
 
 SOLVING FOR HEAD 

 NO OUTPUT CONTROL FOR STRESS PERIOD    2   TIME STEP  612
 
 SOLVING FOR HEAD 

 NO OUTPUT CONTROL FOR STRESS PERIOD    2   TIME STEP  613
 
 SOLVING FOR HEAD 

 NO OUTPUT CONTROL FOR STRESS PERIOD    2   TIME STEP  614
 
 SOLVING FOR HEAD 

 NO OUTPUT CONTROL FOR STRESS PERIOD    2   TIME STEP  615
 
 SOLVING FOR HEAD 

 NO OUTPUT CONTROL FOR STRESS PERIOD    2   TIME STEP  616
 
 SOLVING FOR HEAD 

 NO OUTPUT CONTROL FOR STRESS PERIOD    2   TIME STEP  617
 
 SOLVING FOR HEAD 

 NO OUTPUT CONTROL FOR STRESS PERIOD    2   TIME STEP  618
 
 SOLVING FOR HEAD 

 NO OUTPUT CONTROL FOR STRESS PERIOD    2   TIME STEP  619
 
 SOLVING FOR HEAD 

 NO OUTPUT CONTROL FOR STRESS PERIOD    2   TIME STEP  620
 
 SOLVING FOR HEAD 

 NO OUTPUT CONTROL FOR STRESS PERIOD    2   TIME STEP  621
 
 SOLVING FOR HEAD 

 NO OUTPUT CONTROL FOR STRESS PERIOD    2   TIME STEP  622
 
 SOLVING FOR HEAD 

 NO OUTPUT CONTROL FOR STRESS PERIOD    2   TIME STEP  623
 
 SOLVING FOR HEAD 

 NO OUTPUT CONTROL FOR STRESS PERIOD    2   TIME STEP  624
 
 SOLVING FOR HEAD 

 NO OUTPUT CONTROL FOR STRESS PERIOD    2   TIME STEP  625
 
 SOLVING FOR HEAD 

 NO OUTPUT CONTROL FOR STRESS PERIOD    2   TIME STEP  626
 
 SOLVING FOR HEAD 

 NO OUTPUT CONTROL FOR STRESS PERIOD    2   TIME STEP  627
 
 SOLVING FOR HEAD 

 NO OUTPUT CONTROL FOR STRESS PERIOD    2   TIME STEP  628
 
 SOLVING FOR HEAD 

 NO OUTPUT CONTROL FOR STRESS PERIOD    2   TIME STEP  629
 
 SOLVING FOR HEAD 

 NO OUTPUT CONTROL FOR STRESS PERIOD    2   TIME STEP  630
 
 SOLVING FOR HEAD 

 NO OUTPUT CONTROL FOR STRESS PERIOD    2   TIME STEP  631
 
 SOLVING FOR HEAD 

 NO OUTPUT CONTROL FOR STRESS PERIOD    2   TIME STEP  632
 
 SOLVING FOR HEAD 

 NO OUTPUT CONTROL FOR STRESS PERIOD    2   TIME STEP  633
 
 SOLVING FOR HEAD 

 NO OUTPUT CONTROL FOR STRESS PERIOD    2   TIME STEP  634
 
 SOLVING FOR HEAD 

 NO OUTPUT CONTROL FOR STRESS PERIOD    2   TIME STEP  635
 
 SOLVING FOR HEAD 

 NO OUTPUT CONTROL FOR STRESS PERIOD    2   TIME STEP  636
 
 SOLVING FOR HEAD 

 NO OUTPUT CONTROL FOR STRESS PERIOD    2   TIME STEP  637
 
 SOLVING FOR HEAD 

 NO OUTPUT CONTROL FOR STRESS PERIOD    2   TIME STEP  638
 
 SOLVING FOR HEAD 

 NO OUTPUT CONTROL FOR STRESS PERIOD    2   TIME STEP  639
 
 SOLVING FOR HEAD 

 NO OUTPUT CONTROL FOR STRESS PERIOD    2   TIME STEP  640
 
 SOLVING FOR HEAD 

 NO OUTPUT CONTROL FOR STRESS PERIOD    2   TIME STEP  641
 
 SOLVING FOR HEAD 

 NO OUTPUT CONTROL FOR STRESS PERIOD    2   TIME STEP  642
 
 SOLVING FOR HEAD 

 NO OUTPUT CONTROL FOR STRESS PERIOD    2   TIME STEP  643
 
 SOLVING FOR HEAD 

 NO OUTPUT CONTROL FOR STRESS PERIOD    2   TIME STEP  644
 
 SOLVING FOR HEAD 

 NO OUTPUT CONTROL FOR STRESS PERIOD    2   TIME STEP  645
 
 SOLVING FOR HEAD 

 NO OUTPUT CONTROL FOR STRESS PERIOD    2   TIME STEP  646
 
 SOLVING FOR HEAD 

 NO OUTPUT CONTROL FOR STRESS PERIOD    2   TIME STEP  647
 
 SOLVING FOR HEAD 

 NO OUTPUT CONTROL FOR STRESS PERIOD    2   TIME STEP  648
 
 SOLVING FOR HEAD 

 NO OUTPUT CONTROL FOR STRESS PERIOD    2   TIME STEP  649
 
 SOLVING FOR HEAD 

 NO OUTPUT CONTROL FOR STRESS PERIOD    2   TIME STEP  650
 
 SOLVING FOR HEAD 

 NO OUTPUT CONTROL FOR STRESS PERIOD    2   TIME STEP  651
 
 SOLVING FOR HEAD 

 NO OUTPUT CONTROL FOR STRESS PERIOD    2   TIME STEP  652
 
 SOLVING FOR HEAD 

 NO OUTPUT CONTROL FOR STRESS PERIOD    2   TIME STEP  653
 
 SOLVING FOR HEAD 

 NO OUTPUT CONTROL FOR STRESS PERIOD    2   TIME STEP  654
 
 SOLVING FOR HEAD 

 NO OUTPUT CONTROL FOR STRESS PERIOD    2   TIME STEP  655
 
 SOLVING FOR HEAD 

 NO OUTPUT CONTROL FOR STRESS PERIOD    2   TIME STEP  656
 
 SOLVING FOR HEAD 

 NO OUTPUT CONTROL FOR STRESS PERIOD    2   TIME STEP  657
 
 SOLVING FOR HEAD 

 NO OUTPUT CONTROL FOR STRESS PERIOD    2   TIME STEP  658
 
 SOLVING FOR HEAD 

 NO OUTPUT CONTROL FOR STRESS PERIOD    2   TIME STEP  659
 
 SOLVING FOR HEAD 

 NO OUTPUT CONTROL FOR STRESS PERIOD    2   TIME STEP  660
 
 SOLVING FOR HEAD 

 NO OUTPUT CONTROL FOR STRESS PERIOD    2   TIME STEP  661
 
 SOLVING FOR HEAD 

 NO OUTPUT CONTROL FOR STRESS PERIOD    2   TIME STEP  662
 
 SOLVING FOR HEAD 

 NO OUTPUT CONTROL FOR STRESS PERIOD    2   TIME STEP  663
 
 SOLVING FOR HEAD 

 NO OUTPUT CONTROL FOR STRESS PERIOD    2   TIME STEP  664
 
 SOLVING FOR HEAD 

 NO OUTPUT CONTROL FOR STRESS PERIOD    2   TIME STEP  665
 
 SOLVING FOR HEAD 

 NO OUTPUT CONTROL FOR STRESS PERIOD    2   TIME STEP  666
 
 SOLVING FOR HEAD 

 NO OUTPUT CONTROL FOR STRESS PERIOD    2   TIME STEP  667
 
 SOLVING FOR HEAD 

 NO OUTPUT CONTROL FOR STRESS PERIOD    2   TIME STEP  668
 
 SOLVING FOR HEAD 

 NO OUTPUT CONTROL FOR STRESS PERIOD    2   TIME STEP  669
 
 SOLVING FOR HEAD 

 NO OUTPUT CONTROL FOR STRESS PERIOD    2   TIME STEP  670
 
 SOLVING FOR HEAD 

 NO OUTPUT CONTROL FOR STRESS PERIOD    2   TIME STEP  671
 
 SOLVING FOR HEAD 

 NO OUTPUT CONTROL FOR STRESS PERIOD    2   TIME STEP  672
 
 SOLVING FOR HEAD 

 NO OUTPUT CONTROL FOR STRESS PERIOD    2   TIME STEP  673
 
 SOLVING FOR HEAD 

 NO OUTPUT CONTROL FOR STRESS PERIOD    2   TIME STEP  674
 
 SOLVING FOR HEAD 

 NO OUTPUT CONTROL FOR STRESS PERIOD    2   TIME STEP  675
 
 SOLVING FOR HEAD 

 NO OUTPUT CONTROL FOR STRESS PERIOD    2   TIME STEP  676
 
 SOLVING FOR HEAD 

 NO OUTPUT CONTROL FOR STRESS PERIOD    2   TIME STEP  677
 
 SOLVING FOR HEAD 

 NO OUTPUT CONTROL FOR STRESS PERIOD    2   TIME STEP  678
 
 SOLVING FOR HEAD 

 NO OUTPUT CONTROL FOR STRESS PERIOD    2   TIME STEP  679
 
 SOLVING FOR HEAD 

 NO OUTPUT CONTROL FOR STRESS PERIOD    2   TIME STEP  680
 
 SOLVING FOR HEAD 

 NO OUTPUT CONTROL FOR STRESS PERIOD    2   TIME STEP  681
 
 SOLVING FOR HEAD 

 NO OUTPUT CONTROL FOR STRESS PERIOD    2   TIME STEP  682
 
 SOLVING FOR HEAD 

 NO OUTPUT CONTROL FOR STRESS PERIOD    2   TIME STEP  683
 
 SOLVING FOR HEAD 

 NO OUTPUT CONTROL FOR STRESS PERIOD    2   TIME STEP  684
 
 SOLVING FOR HEAD 

 NO OUTPUT CONTROL FOR STRESS PERIOD    2   TIME STEP  685
 
 SOLVING FOR HEAD 

 NO OUTPUT CONTROL FOR STRESS PERIOD    2   TIME STEP  686
 
 SOLVING FOR HEAD 

 NO OUTPUT CONTROL FOR STRESS PERIOD    2   TIME STEP  687
 
 SOLVING FOR HEAD 

 NO OUTPUT CONTROL FOR STRESS PERIOD    2   TIME STEP  688
 
 SOLVING FOR HEAD 

 NO OUTPUT CONTROL FOR STRESS PERIOD    2   TIME STEP  689
 
 SOLVING FOR HEAD 

 NO OUTPUT CONTROL FOR STRESS PERIOD    2   TIME STEP  690
 
 SOLVING FOR HEAD 

 NO OUTPUT CONTROL FOR STRESS PERIOD    2   TIME STEP  691
 
 SOLVING FOR HEAD 

 NO OUTPUT CONTROL FOR STRESS PERIOD    2   TIME STEP  692
 
 SOLVING FOR HEAD 

 NO OUTPUT CONTROL FOR STRESS PERIOD    2   TIME STEP  693
 
 SOLVING FOR HEAD 

 NO OUTPUT CONTROL FOR STRESS PERIOD    2   TIME STEP  694
 
 SOLVING FOR HEAD 

 NO OUTPUT CONTROL FOR STRESS PERIOD    2   TIME STEP  695
 
 SOLVING FOR HEAD 

 NO OUTPUT CONTROL FOR STRESS PERIOD    2   TIME STEP  696
 
 SOLVING FOR HEAD 

 NO OUTPUT CONTROL FOR STRESS PERIOD    2   TIME STEP  697
 
 SOLVING FOR HEAD 

 NO OUTPUT CONTROL FOR STRESS PERIOD    2   TIME STEP  698
 
 SOLVING FOR HEAD 

 NO OUTPUT CONTROL FOR STRESS PERIOD    2   TIME STEP  699
 
 SOLVING FOR HEAD 

 NO OUTPUT CONTROL FOR STRESS PERIOD    2   TIME STEP  700
 
 SOLVING FOR HEAD 

 NO OUTPUT CONTROL FOR STRESS PERIOD    2   TIME STEP  701
 
 SOLVING FOR HEAD 

 NO OUTPUT CONTROL FOR STRESS PERIOD    2   TIME STEP  702
 
 SOLVING FOR HEAD 

 NO OUTPUT CONTROL FOR STRESS PERIOD    2   TIME STEP  703
 
 SOLVING FOR HEAD 

 NO OUTPUT CONTROL FOR STRESS PERIOD    2   TIME STEP  704
 
 SOLVING FOR HEAD 

 NO OUTPUT CONTROL FOR STRESS PERIOD    2   TIME STEP  705
 
 SOLVING FOR HEAD 

 NO OUTPUT CONTROL FOR STRESS PERIOD    2   TIME STEP  706
 
 SOLVING FOR HEAD 

 NO OUTPUT CONTROL FOR STRESS PERIOD    2   TIME STEP  707
 
 SOLVING FOR HEAD 

 NO OUTPUT CONTROL FOR STRESS PERIOD    2   TIME STEP  708
 
 SOLVING FOR HEAD 

 NO OUTPUT CONTROL FOR STRESS PERIOD    2   TIME STEP  709
 
 SOLVING FOR HEAD 

 NO OUTPUT CONTROL FOR STRESS PERIOD    2   TIME STEP  710
 
 SOLVING FOR HEAD 

 NO OUTPUT CONTROL FOR STRESS PERIOD    2   TIME STEP  711
 
 SOLVING FOR HEAD 

 NO OUTPUT CONTROL FOR STRESS PERIOD    2   TIME STEP  712
 
 SOLVING FOR HEAD 

 NO OUTPUT CONTROL FOR STRESS PERIOD    2   TIME STEP  713
 
 SOLVING FOR HEAD 

 NO OUTPUT CONTROL FOR STRESS PERIOD    2   TIME STEP  714
 
 SOLVING FOR HEAD 

 NO OUTPUT CONTROL FOR STRESS PERIOD    2   TIME STEP  715
 
 SOLVING FOR HEAD 

 NO OUTPUT CONTROL FOR STRESS PERIOD    2   TIME STEP  716
 
 SOLVING FOR HEAD 

 NO OUTPUT CONTROL FOR STRESS PERIOD    2   TIME STEP  717
 
 SOLVING FOR HEAD 

 NO OUTPUT CONTROL FOR STRESS PERIOD    2   TIME STEP  718
 
 SOLVING FOR HEAD 

 NO OUTPUT CONTROL FOR STRESS PERIOD    2   TIME STEP  719
 
 SOLVING FOR HEAD 

 NO OUTPUT CONTROL FOR STRESS PERIOD    2   TIME STEP  720
 
 SOLVING FOR HEAD 

 NO OUTPUT CONTROL FOR STRESS PERIOD    2   TIME STEP  721
 
 SOLVING FOR HEAD 

 NO OUTPUT CONTROL FOR STRESS PERIOD    2   TIME STEP  722
 
 SOLVING FOR HEAD 

 NO OUTPUT CONTROL FOR STRESS PERIOD    2   TIME STEP  723
 
 SOLVING FOR HEAD 

 NO OUTPUT CONTROL FOR STRESS PERIOD    2   TIME STEP  724
 
 SOLVING FOR HEAD 

 NO OUTPUT CONTROL FOR STRESS PERIOD    2   TIME STEP  725
 
 SOLVING FOR HEAD 

 NO OUTPUT CONTROL FOR STRESS PERIOD    2   TIME STEP  726
 
 SOLVING FOR HEAD 

 NO OUTPUT CONTROL FOR STRESS PERIOD    2   TIME STEP  727
 
 SOLVING FOR HEAD 

 NO OUTPUT CONTROL FOR STRESS PERIOD    2   TIME STEP  728
 
 SOLVING FOR HEAD 

 NO OUTPUT CONTROL FOR STRESS PERIOD    2   TIME STEP  729
 
 SOLVING FOR HEAD 

 NO OUTPUT CONTROL FOR STRESS PERIOD    2   TIME STEP  730
 
 SOLVING FOR HEAD 

 NO OUTPUT CONTROL FOR STRESS PERIOD    2   TIME STEP  731
 
 SOLVING FOR HEAD 

 NO OUTPUT CONTROL FOR STRESS PERIOD    2   TIME STEP  732
 
 SOLVING FOR HEAD 

 NO OUTPUT CONTROL FOR STRESS PERIOD    2   TIME STEP  733
 
 SOLVING FOR HEAD 

 NO OUTPUT CONTROL FOR STRESS PERIOD    2   TIME STEP  734
 
 SOLVING FOR HEAD 

 NO OUTPUT CONTROL FOR STRESS PERIOD    2   TIME STEP  735
 
 SOLVING FOR HEAD 

 NO OUTPUT CONTROL FOR STRESS PERIOD    2   TIME STEP  736
 
 SOLVING FOR HEAD 

 NO OUTPUT CONTROL FOR STRESS PERIOD    2   TIME STEP  737
 
 SOLVING FOR HEAD 

 NO OUTPUT CONTROL FOR STRESS PERIOD    2   TIME STEP  738
 
 SOLVING FOR HEAD 

 NO OUTPUT CONTROL FOR STRESS PERIOD    2   TIME STEP  739
 
 SOLVING FOR HEAD 

 NO OUTPUT CONTROL FOR STRESS PERIOD    2   TIME STEP  740
 
 SOLVING FOR HEAD 

 NO OUTPUT CONTROL FOR STRESS PERIOD    2   TIME STEP  741
 
 SOLVING FOR HEAD 

 NO OUTPUT CONTROL FOR STRESS PERIOD    2   TIME STEP  742
 
 SOLVING FOR HEAD 

 NO OUTPUT CONTROL FOR STRESS PERIOD    2   TIME STEP  743
 
 SOLVING FOR HEAD 

 NO OUTPUT CONTROL FOR STRESS PERIOD    2   TIME STEP  744
 
 SOLVING FOR HEAD 

 NO OUTPUT CONTROL FOR STRESS PERIOD    2   TIME STEP  745
 
 SOLVING FOR HEAD 

 NO OUTPUT CONTROL FOR STRESS PERIOD    2   TIME STEP  746
 
 SOLVING FOR HEAD 

 NO OUTPUT CONTROL FOR STRESS PERIOD    2   TIME STEP  747
 
 SOLVING FOR HEAD 

 NO OUTPUT CONTROL FOR STRESS PERIOD    2   TIME STEP  748
 
 SOLVING FOR HEAD 

 NO OUTPUT CONTROL FOR STRESS PERIOD    2   TIME STEP  749
 
 SOLVING FOR HEAD 

 NO OUTPUT CONTROL FOR STRESS PERIOD    2   TIME STEP  750
 
 SOLVING FOR HEAD 

 NO OUTPUT CONTROL FOR STRESS PERIOD    2   TIME STEP  751
 
 SOLVING FOR HEAD 

 NO OUTPUT CONTROL FOR STRESS PERIOD    2   TIME STEP  752
 
 SOLVING FOR HEAD 

 NO OUTPUT CONTROL FOR STRESS PERIOD    2   TIME STEP  753
 
 SOLVING FOR HEAD 

 NO OUTPUT CONTROL FOR STRESS PERIOD    2   TIME STEP  754
 
 SOLVING FOR HEAD 

 NO OUTPUT CONTROL FOR STRESS PERIOD    2   TIME STEP  755
 
 SOLVING FOR HEAD 

 NO OUTPUT CONTROL FOR STRESS PERIOD    2   TIME STEP  756
 
 SOLVING FOR HEAD 

 NO OUTPUT CONTROL FOR STRESS PERIOD    2   TIME STEP  757
 
 SOLVING FOR HEAD 

 NO OUTPUT CONTROL FOR STRESS PERIOD    2   TIME STEP  758
 
 SOLVING FOR HEAD 

 NO OUTPUT CONTROL FOR STRESS PERIOD    2   TIME STEP  759
 
 SOLVING FOR HEAD 

 NO OUTPUT CONTROL FOR STRESS PERIOD    2   TIME STEP  760
 
 SOLVING FOR HEAD 

 NO OUTPUT CONTROL FOR STRESS PERIOD    2   TIME STEP  761
 
 SOLVING FOR HEAD 

 NO OUTPUT CONTROL FOR STRESS PERIOD    2   TIME STEP  762
 
 SOLVING FOR HEAD 

 NO OUTPUT CONTROL FOR STRESS PERIOD    2   TIME STEP  763
 
 SOLVING FOR HEAD 

 NO OUTPUT CONTROL FOR STRESS PERIOD    2   TIME STEP  764
 
 SOLVING FOR HEAD 

 NO OUTPUT CONTROL FOR STRESS PERIOD    2   TIME STEP  765
 
 SOLVING FOR HEAD 

 NO OUTPUT CONTROL FOR STRESS PERIOD    2   TIME STEP  766
 
 SOLVING FOR HEAD 

 NO OUTPUT CONTROL FOR STRESS PERIOD    2   TIME STEP  767
 
 SOLVING FOR HEAD 

 NO OUTPUT CONTROL FOR STRESS PERIOD    2   TIME STEP  768
 
 SOLVING FOR HEAD 

 NO OUTPUT CONTROL FOR STRESS PERIOD    2   TIME STEP  769
 
 SOLVING FOR HEAD 

 NO OUTPUT CONTROL FOR STRESS PERIOD    2   TIME STEP  770
 
 SOLVING FOR HEAD 

 NO OUTPUT CONTROL FOR STRESS PERIOD    2   TIME STEP  771
 
 SOLVING FOR HEAD 

 NO OUTPUT CONTROL FOR STRESS PERIOD    2   TIME STEP  772
 
 SOLVING FOR HEAD 

 NO OUTPUT CONTROL FOR STRESS PERIOD    2   TIME STEP  773
 
 SOLVING FOR HEAD 

 NO OUTPUT CONTROL FOR STRESS PERIOD    2   TIME STEP  774
 
 SOLVING FOR HEAD 

 NO OUTPUT CONTROL FOR STRESS PERIOD    2   TIME STEP  775
 
 SOLVING FOR HEAD 

 NO OUTPUT CONTROL FOR STRESS PERIOD    2   TIME STEP  776
 
 SOLVING FOR HEAD 

 NO OUTPUT CONTROL FOR STRESS PERIOD    2   TIME STEP  777
 
 SOLVING FOR HEAD 

 NO OUTPUT CONTROL FOR STRESS PERIOD    2   TIME STEP  778
 
 SOLVING FOR HEAD 

 NO OUTPUT CONTROL FOR STRESS PERIOD    2   TIME STEP  779
 
 SOLVING FOR HEAD 

 NO OUTPUT CONTROL FOR STRESS PERIOD    2   TIME STEP  780
 
 SOLVING FOR HEAD 

 NO OUTPUT CONTROL FOR STRESS PERIOD    2   TIME STEP  781
 
 SOLVING FOR HEAD 

 NO OUTPUT CONTROL FOR STRESS PERIOD    2   TIME STEP  782
 
 SOLVING FOR HEAD 

 NO OUTPUT CONTROL FOR STRESS PERIOD    2   TIME STEP  783
 
 SOLVING FOR HEAD 

 NO OUTPUT CONTROL FOR STRESS PERIOD    2   TIME STEP  784
 
 SOLVING FOR HEAD 

 NO OUTPUT CONTROL FOR STRESS PERIOD    2   TIME STEP  785
 
 SOLVING FOR HEAD 

 NO OUTPUT CONTROL FOR STRESS PERIOD    2   TIME STEP  786
 
 SOLVING FOR HEAD 

 NO OUTPUT CONTROL FOR STRESS PERIOD    2   TIME STEP  787
 
 SOLVING FOR HEAD 

 NO OUTPUT CONTROL FOR STRESS PERIOD    2   TIME STEP  788
 
 SOLVING FOR HEAD 

 NO OUTPUT CONTROL FOR STRESS PERIOD    2   TIME STEP  789
 
 SOLVING FOR HEAD 

 NO OUTPUT CONTROL FOR STRESS PERIOD    2   TIME STEP  790
 
 SOLVING FOR HEAD 

 NO OUTPUT CONTROL FOR STRESS PERIOD    2   TIME STEP  791
 
 SOLVING FOR HEAD 

 NO OUTPUT CONTROL FOR STRESS PERIOD    2   TIME STEP  792
 
 SOLVING FOR HEAD 

 NO OUTPUT CONTROL FOR STRESS PERIOD    2   TIME STEP  793
 
 SOLVING FOR HEAD 

 NO OUTPUT CONTROL FOR STRESS PERIOD    2   TIME STEP  794
 
 SOLVING FOR HEAD 

 NO OUTPUT CONTROL FOR STRESS PERIOD    2   TIME STEP  795
 
 SOLVING FOR HEAD 

 NO OUTPUT CONTROL FOR STRESS PERIOD    2   TIME STEP  796
 
 SOLVING FOR HEAD 

 NO OUTPUT CONTROL FOR STRESS PERIOD    2   TIME STEP  797
 
 SOLVING FOR HEAD 

 NO OUTPUT CONTROL FOR STRESS PERIOD    2   TIME STEP  798
 
 SOLVING FOR HEAD 

 NO OUTPUT CONTROL FOR STRESS PERIOD    2   TIME STEP  799
 
 SOLVING FOR HEAD 

 NO OUTPUT CONTROL FOR STRESS PERIOD    2   TIME STEP  800
 
 SOLVING FOR HEAD 

 NO OUTPUT CONTROL FOR STRESS PERIOD    2   TIME STEP  801
 
 SOLVING FOR HEAD 

 NO OUTPUT CONTROL FOR STRESS PERIOD    2   TIME STEP  802
 
 SOLVING FOR HEAD 

 NO OUTPUT CONTROL FOR STRESS PERIOD    2   TIME STEP  803
 
 SOLVING FOR HEAD 

 NO OUTPUT CONTROL FOR STRESS PERIOD    2   TIME STEP  804
 
 SOLVING FOR HEAD 

 NO OUTPUT CONTROL FOR STRESS PERIOD    2   TIME STEP  805
 
 SOLVING FOR HEAD 

 NO OUTPUT CONTROL FOR STRESS PERIOD    2   TIME STEP  806
 
 SOLVING FOR HEAD 

 NO OUTPUT CONTROL FOR STRESS PERIOD    2   TIME STEP  807
 
 SOLVING FOR HEAD 

 NO OUTPUT CONTROL FOR STRESS PERIOD    2   TIME STEP  808
 
 SOLVING FOR HEAD 

 NO OUTPUT CONTROL FOR STRESS PERIOD    2   TIME STEP  809
 
 SOLVING FOR HEAD 

 NO OUTPUT CONTROL FOR STRESS PERIOD    2   TIME STEP  810
 
 SOLVING FOR HEAD 

 NO OUTPUT CONTROL FOR STRESS PERIOD    2   TIME STEP  811
 
 SOLVING FOR HEAD 

 NO OUTPUT CONTROL FOR STRESS PERIOD    2   TIME STEP  812
 
 SOLVING FOR HEAD 

 NO OUTPUT CONTROL FOR STRESS PERIOD    2   TIME STEP  813
 
 SOLVING FOR HEAD 

 NO OUTPUT CONTROL FOR STRESS PERIOD    2   TIME STEP  814
 
 SOLVING FOR HEAD 

 NO OUTPUT CONTROL FOR STRESS PERIOD    2   TIME STEP  815
 
 SOLVING FOR HEAD 

 NO OUTPUT CONTROL FOR STRESS PERIOD    2   TIME STEP  816
 
 SOLVING FOR HEAD 

 NO OUTPUT CONTROL FOR STRESS PERIOD    2   TIME STEP  817
 
 SOLVING FOR HEAD 

 NO OUTPUT CONTROL FOR STRESS PERIOD    2   TIME STEP  818
 
 SOLVING FOR HEAD 

 NO OUTPUT CONTROL FOR STRESS PERIOD    2   TIME STEP  819
 
 SOLVING FOR HEAD 

 NO OUTPUT CONTROL FOR STRESS PERIOD    2   TIME STEP  820
 
 SOLVING FOR HEAD 

 NO OUTPUT CONTROL FOR STRESS PERIOD    2   TIME STEP  821
 
 SOLVING FOR HEAD 

 NO OUTPUT CONTROL FOR STRESS PERIOD    2   TIME STEP  822
 
 SOLVING FOR HEAD 

 NO OUTPUT CONTROL FOR STRESS PERIOD    2   TIME STEP  823
 
 SOLVING FOR HEAD 

 NO OUTPUT CONTROL FOR STRESS PERIOD    2   TIME STEP  824
 
 SOLVING FOR HEAD 

 NO OUTPUT CONTROL FOR STRESS PERIOD    2   TIME STEP  825
 
 SOLVING FOR HEAD 

 NO OUTPUT CONTROL FOR STRESS PERIOD    2   TIME STEP  826
 
 SOLVING FOR HEAD 

 NO OUTPUT CONTROL FOR STRESS PERIOD    2   TIME STEP  827
 
 SOLVING FOR HEAD 

 NO OUTPUT CONTROL FOR STRESS PERIOD    2   TIME STEP  828
 
 SOLVING FOR HEAD 

 NO OUTPUT CONTROL FOR STRESS PERIOD    2   TIME STEP  829
 
 SOLVING FOR HEAD 

 NO OUTPUT CONTROL FOR STRESS PERIOD    2   TIME STEP  830
 
 SOLVING FOR HEAD 

 NO OUTPUT CONTROL FOR STRESS PERIOD    2   TIME STEP  831
 
 SOLVING FOR HEAD 

 NO OUTPUT CONTROL FOR STRESS PERIOD    2   TIME STEP  832
 
 SOLVING FOR HEAD 

 NO OUTPUT CONTROL FOR STRESS PERIOD    2   TIME STEP  833
 
 SOLVING FOR HEAD 

 NO OUTPUT CONTROL FOR STRESS PERIOD    2   TIME STEP  834
 
 SOLVING FOR HEAD 

 NO OUTPUT CONTROL FOR STRESS PERIOD    2   TIME STEP  835
 
 SOLVING FOR HEAD 

 NO OUTPUT CONTROL FOR STRESS PERIOD    2   TIME STEP  836
 
 SOLVING FOR HEAD 

 NO OUTPUT CONTROL FOR STRESS PERIOD    2   TIME STEP  837
 
 SOLVING FOR HEAD 

 NO OUTPUT CONTROL FOR STRESS PERIOD    2   TIME STEP  838
 
 SOLVING FOR HEAD 

 NO OUTPUT CONTROL FOR STRESS PERIOD    2   TIME STEP  839
 
 SOLVING FOR HEAD 

 NO OUTPUT CONTROL FOR STRESS PERIOD    2   TIME STEP  840
 
 SOLVING FOR HEAD 

 NO OUTPUT CONTROL FOR STRESS PERIOD    2   TIME STEP  841
 
 SOLVING FOR HEAD 

 NO OUTPUT CONTROL FOR STRESS PERIOD    2   TIME STEP  842
 
 SOLVING FOR HEAD 

 NO OUTPUT CONTROL FOR STRESS PERIOD    2   TIME STEP  843
 
 SOLVING FOR HEAD 

 NO OUTPUT CONTROL FOR STRESS PERIOD    2   TIME STEP  844
 
 SOLVING FOR HEAD 

 NO OUTPUT CONTROL FOR STRESS PERIOD    2   TIME STEP  845
 
 SOLVING FOR HEAD 

 NO OUTPUT CONTROL FOR STRESS PERIOD    2   TIME STEP  846
 
 SOLVING FOR HEAD 

 NO OUTPUT CONTROL FOR STRESS PERIOD    2   TIME STEP  847
 
 SOLVING FOR HEAD 

 NO OUTPUT CONTROL FOR STRESS PERIOD    2   TIME STEP  848
 
 SOLVING FOR HEAD 

 NO OUTPUT CONTROL FOR STRESS PERIOD    2   TIME STEP  849
 
 SOLVING FOR HEAD 

 NO OUTPUT CONTROL FOR STRESS PERIOD    2   TIME STEP  850
 
 SOLVING FOR HEAD 

 NO OUTPUT CONTROL FOR STRESS PERIOD    2   TIME STEP  851
 
 SOLVING FOR HEAD 

 NO OUTPUT CONTROL FOR STRESS PERIOD    2   TIME STEP  852
 
 SOLVING FOR HEAD 

 NO OUTPUT CONTROL FOR STRESS PERIOD    2   TIME STEP  853
 
 SOLVING FOR HEAD 

 NO OUTPUT CONTROL FOR STRESS PERIOD    2   TIME STEP  854
 
 SOLVING FOR HEAD 

 NO OUTPUT CONTROL FOR STRESS PERIOD    2   TIME STEP  855
 
 SOLVING FOR HEAD 

 NO OUTPUT CONTROL FOR STRESS PERIOD    2   TIME STEP  856
 
 SOLVING FOR HEAD 

 NO OUTPUT CONTROL FOR STRESS PERIOD    2   TIME STEP  857
 
 SOLVING FOR HEAD 

 NO OUTPUT CONTROL FOR STRESS PERIOD    2   TIME STEP  858
 
 SOLVING FOR HEAD 

 NO OUTPUT CONTROL FOR STRESS PERIOD    2   TIME STEP  859
 
 SOLVING FOR HEAD 

 NO OUTPUT CONTROL FOR STRESS PERIOD    2   TIME STEP  860
 
 SOLVING FOR HEAD 

 NO OUTPUT CONTROL FOR STRESS PERIOD    2   TIME STEP  861
 
 SOLVING FOR HEAD 

 NO OUTPUT CONTROL FOR STRESS PERIOD    2   TIME STEP  862
 
 SOLVING FOR HEAD 

 NO OUTPUT CONTROL FOR STRESS PERIOD    2   TIME STEP  863
 
 SOLVING FOR HEAD 

 NO OUTPUT CONTROL FOR STRESS PERIOD    2   TIME STEP  864
 
 SOLVING FOR HEAD 

 NO OUTPUT CONTROL FOR STRESS PERIOD    2   TIME STEP  865
 
 SOLVING FOR HEAD 

 NO OUTPUT CONTROL FOR STRESS PERIOD    2   TIME STEP  866
 
 SOLVING FOR HEAD 

 NO OUTPUT CONTROL FOR STRESS PERIOD    2   TIME STEP  867
 
 SOLVING FOR HEAD 

 NO OUTPUT CONTROL FOR STRESS PERIOD    2   TIME STEP  868
 
 SOLVING FOR HEAD 

 NO OUTPUT CONTROL FOR STRESS PERIOD    2   TIME STEP  869
 
 SOLVING FOR HEAD 

 NO OUTPUT CONTROL FOR STRESS PERIOD    2   TIME STEP  870
 
 SOLVING FOR HEAD 

 NO OUTPUT CONTROL FOR STRESS PERIOD    2   TIME STEP  871
 
 SOLVING FOR HEAD 

 NO OUTPUT CONTROL FOR STRESS PERIOD    2   TIME STEP  872
 
 SOLVING FOR HEAD 

 NO OUTPUT CONTROL FOR STRESS PERIOD    2   TIME STEP  873
 
 SOLVING FOR HEAD 

 NO OUTPUT CONTROL FOR STRESS PERIOD    2   TIME STEP  874
 
 SOLVING FOR HEAD 

 NO OUTPUT CONTROL FOR STRESS PERIOD    2   TIME STEP  875
 
 SOLVING FOR HEAD 

 NO OUTPUT CONTROL FOR STRESS PERIOD    2   TIME STEP  876
 
 SOLVING FOR HEAD 

 NO OUTPUT CONTROL FOR STRESS PERIOD    2   TIME STEP  877
 
 SOLVING FOR HEAD 

 NO OUTPUT CONTROL FOR STRESS PERIOD    2   TIME STEP  878
 
 SOLVING FOR HEAD 

 NO OUTPUT CONTROL FOR STRESS PERIOD    2   TIME STEP  879
 
 SOLVING FOR HEAD 

 NO OUTPUT CONTROL FOR STRESS PERIOD    2   TIME STEP  880
 
 SOLVING FOR HEAD 

 NO OUTPUT CONTROL FOR STRESS PERIOD    2   TIME STEP  881
 
 SOLVING FOR HEAD 

 NO OUTPUT CONTROL FOR STRESS PERIOD    2   TIME STEP  882
 
 SOLVING FOR HEAD 

 NO OUTPUT CONTROL FOR STRESS PERIOD    2   TIME STEP  883
 
 SOLVING FOR HEAD 

 NO OUTPUT CONTROL FOR STRESS PERIOD    2   TIME STEP  884
 
 SOLVING FOR HEAD 

 NO OUTPUT CONTROL FOR STRESS PERIOD    2   TIME STEP  885
 
 SOLVING FOR HEAD 

 NO OUTPUT CONTROL FOR STRESS PERIOD    2   TIME STEP  886
 
 SOLVING FOR HEAD 

 NO OUTPUT CONTROL FOR STRESS PERIOD    2   TIME STEP  887
 
 SOLVING FOR HEAD 

 NO OUTPUT CONTROL FOR STRESS PERIOD    2   TIME STEP  888
 
 SOLVING FOR HEAD 

 NO OUTPUT CONTROL FOR STRESS PERIOD    2   TIME STEP  889
 
 SOLVING FOR HEAD 

 NO OUTPUT CONTROL FOR STRESS PERIOD    2   TIME STEP  890
 
 SOLVING FOR HEAD 

 NO OUTPUT CONTROL FOR STRESS PERIOD    2   TIME STEP  891
 
 SOLVING FOR HEAD 

 NO OUTPUT CONTROL FOR STRESS PERIOD    2   TIME STEP  892
 
 SOLVING FOR HEAD 

 NO OUTPUT CONTROL FOR STRESS PERIOD    2   TIME STEP  893
 
 SOLVING FOR HEAD 

 NO OUTPUT CONTROL FOR STRESS PERIOD    2   TIME STEP  894
 
 SOLVING FOR HEAD 

 NO OUTPUT CONTROL FOR STRESS PERIOD    2   TIME STEP  895
 
 SOLVING FOR HEAD 

 NO OUTPUT CONTROL FOR STRESS PERIOD    2   TIME STEP  896
 
 SOLVING FOR HEAD 

 NO OUTPUT CONTROL FOR STRESS PERIOD    2   TIME STEP  897
 
 SOLVING FOR HEAD 

 NO OUTPUT CONTROL FOR STRESS PERIOD    2   TIME STEP  898
 
 SOLVING FOR HEAD 

 NO OUTPUT CONTROL FOR STRESS PERIOD    2   TIME STEP  899
 
 SOLVING FOR HEAD 

 NO OUTPUT CONTROL FOR STRESS PERIOD    2   TIME STEP  900
 
 SOLVING FOR HEAD 

 NO OUTPUT CONTROL FOR STRESS PERIOD    2   TIME STEP  901
 
 SOLVING FOR HEAD 

 NO OUTPUT CONTROL FOR STRESS PERIOD    2   TIME STEP  902
 
 SOLVING FOR HEAD 

 NO OUTPUT CONTROL FOR STRESS PERIOD    2   TIME STEP  903
 
 SOLVING FOR HEAD 

 NO OUTPUT CONTROL FOR STRESS PERIOD    2   TIME STEP  904
 
 SOLVING FOR HEAD 

 NO OUTPUT CONTROL FOR STRESS PERIOD    2   TIME STEP  905
 
 SOLVING FOR HEAD 

 NO OUTPUT CONTROL FOR STRESS PERIOD    2   TIME STEP  906
 
 SOLVING FOR HEAD 

 NO OUTPUT CONTROL FOR STRESS PERIOD    2   TIME STEP  907
 
 SOLVING FOR HEAD 

 NO OUTPUT CONTROL FOR STRESS PERIOD    2   TIME STEP  908
 
 SOLVING FOR HEAD 

 NO OUTPUT CONTROL FOR STRESS PERIOD    2   TIME STEP  909
 
 SOLVING FOR HEAD 

 NO OUTPUT CONTROL FOR STRESS PERIOD    2   TIME STEP  910
 
 SOLVING FOR HEAD 

 NO OUTPUT CONTROL FOR STRESS PERIOD    2   TIME STEP  911
 
 SOLVING FOR HEAD 

 NO OUTPUT CONTROL FOR STRESS PERIOD    2   TIME STEP  912
 
 SOLVING FOR HEAD 

 NO OUTPUT CONTROL FOR STRESS PERIOD    2   TIME STEP  913
 
 SOLVING FOR HEAD 

 NO OUTPUT CONTROL FOR STRESS PERIOD    2   TIME STEP  914
 
 SOLVING FOR HEAD 

 NO OUTPUT CONTROL FOR STRESS PERIOD    2   TIME STEP  915
 
 SOLVING FOR HEAD 

 NO OUTPUT CONTROL FOR STRESS PERIOD    2   TIME STEP  916
 
 SOLVING FOR HEAD 

 NO OUTPUT CONTROL FOR STRESS PERIOD    2   TIME STEP  917
 
 SOLVING FOR HEAD 

 NO OUTPUT CONTROL FOR STRESS PERIOD    2   TIME STEP  918
 
 SOLVING FOR HEAD 

 NO OUTPUT CONTROL FOR STRESS PERIOD    2   TIME STEP  919
 
 SOLVING FOR HEAD 

 NO OUTPUT CONTROL FOR STRESS PERIOD    2   TIME STEP  920
 
 SOLVING FOR HEAD 

 NO OUTPUT CONTROL FOR STRESS PERIOD    2   TIME STEP  921
 
 SOLVING FOR HEAD 

 NO OUTPUT CONTROL FOR STRESS PERIOD    2   TIME STEP  922
 
 SOLVING FOR HEAD 

 NO OUTPUT CONTROL FOR STRESS PERIOD    2   TIME STEP  923
 
 SOLVING FOR HEAD 

 NO OUTPUT CONTROL FOR STRESS PERIOD    2   TIME STEP  924
 
 SOLVING FOR HEAD 

 NO OUTPUT CONTROL FOR STRESS PERIOD    2   TIME STEP  925
 
 SOLVING FOR HEAD 

 NO OUTPUT CONTROL FOR STRESS PERIOD    2   TIME STEP  926
 
 SOLVING FOR HEAD 

 NO OUTPUT CONTROL FOR STRESS PERIOD    2   TIME STEP  927
 
 SOLVING FOR HEAD 

 NO OUTPUT CONTROL FOR STRESS PERIOD    2   TIME STEP  928
 
 SOLVING FOR HEAD 

 NO OUTPUT CONTROL FOR STRESS PERIOD    2   TIME STEP  929
 
 SOLVING FOR HEAD 

 NO OUTPUT CONTROL FOR STRESS PERIOD    2   TIME STEP  930
 
 SOLVING FOR HEAD 

 NO OUTPUT CONTROL FOR STRESS PERIOD    2   TIME STEP  931
 
 SOLVING FOR HEAD 

 NO OUTPUT CONTROL FOR STRESS PERIOD    2   TIME STEP  932
 
 SOLVING FOR HEAD 

 NO OUTPUT CONTROL FOR STRESS PERIOD    2   TIME STEP  933
 
 SOLVING FOR HEAD 

 NO OUTPUT CONTROL FOR STRESS PERIOD    2   TIME STEP  934
 
 SOLVING FOR HEAD 

 NO OUTPUT CONTROL FOR STRESS PERIOD    2   TIME STEP  935
 
 SOLVING FOR HEAD 

 NO OUTPUT CONTROL FOR STRESS PERIOD    2   TIME STEP  936
 
 SOLVING FOR HEAD 

 NO OUTPUT CONTROL FOR STRESS PERIOD    2   TIME STEP  937
 
 SOLVING FOR HEAD 

 NO OUTPUT CONTROL FOR STRESS PERIOD    2   TIME STEP  938
 
 SOLVING FOR HEAD 

 NO OUTPUT CONTROL FOR STRESS PERIOD    2   TIME STEP  939
 
 SOLVING FOR HEAD 

 NO OUTPUT CONTROL FOR STRESS PERIOD    2   TIME STEP  940
 
 SOLVING FOR HEAD 

 NO OUTPUT CONTROL FOR STRESS PERIOD    2   TIME STEP  941
 
 SOLVING FOR HEAD 

 NO OUTPUT CONTROL FOR STRESS PERIOD    2   TIME STEP  942
 
 SOLVING FOR HEAD 

 NO OUTPUT CONTROL FOR STRESS PERIOD    2   TIME STEP  943
 
 SOLVING FOR HEAD 

 NO OUTPUT CONTROL FOR STRESS PERIOD    2   TIME STEP  944
 
 SOLVING FOR HEAD 

 NO OUTPUT CONTROL FOR STRESS PERIOD    2   TIME STEP  945
 
 SOLVING FOR HEAD 

 NO OUTPUT CONTROL FOR STRESS PERIOD    2   TIME STEP  946
 
 SOLVING FOR HEAD 

 NO OUTPUT CONTROL FOR STRESS PERIOD    2   TIME STEP  947
 
 SOLVING FOR HEAD 

 NO OUTPUT CONTROL FOR STRESS PERIOD    2   TIME STEP  948
 
 SOLVING FOR HEAD 

 NO OUTPUT CONTROL FOR STRESS PERIOD    2   TIME STEP  949
 
 SOLVING FOR HEAD 

 NO OUTPUT CONTROL FOR STRESS PERIOD    2   TIME STEP  950
 
 SOLVING FOR HEAD 

 NO OUTPUT CONTROL FOR STRESS PERIOD    2   TIME STEP  951
 
 SOLVING FOR HEAD 

 NO OUTPUT CONTROL FOR STRESS PERIOD    2   TIME STEP  952
 
 SOLVING FOR HEAD 

 NO OUTPUT CONTROL FOR STRESS PERIOD    2   TIME STEP  953
 
 SOLVING FOR HEAD 

 NO OUTPUT CONTROL FOR STRESS PERIOD    2   TIME STEP  954
 
 SOLVING FOR HEAD 

 NO OUTPUT CONTROL FOR STRESS PERIOD    2   TIME STEP  955
 
 SOLVING FOR HEAD 

 NO OUTPUT CONTROL FOR STRESS PERIOD    2   TIME STEP  956
 
 SOLVING FOR HEAD 

 NO OUTPUT CONTROL FOR STRESS PERIOD    2   TIME STEP  957
 
 SOLVING FOR HEAD 

 NO OUTPUT CONTROL FOR STRESS PERIOD    2   TIME STEP  958
 
 SOLVING FOR HEAD 

 NO OUTPUT CONTROL FOR STRESS PERIOD    2   TIME STEP  959
 
 SOLVING FOR HEAD 

 NO OUTPUT CONTROL FOR STRESS PERIOD    2   TIME STEP  960
 
 SOLVING FOR HEAD 

 NO OUTPUT CONTROL FOR STRESS PERIOD    2   TIME STEP  961
 
 SOLVING FOR HEAD 

 NO OUTPUT CONTROL FOR STRESS PERIOD    2   TIME STEP  962
 
 SOLVING FOR HEAD 

 NO OUTPUT CONTROL FOR STRESS PERIOD    2   TIME STEP  963
 
 SOLVING FOR HEAD 

 NO OUTPUT CONTROL FOR STRESS PERIOD    2   TIME STEP  964
 
 SOLVING FOR HEAD 

 NO OUTPUT CONTROL FOR STRESS PERIOD    2   TIME STEP  965
 
 SOLVING FOR HEAD 

 NO OUTPUT CONTROL FOR STRESS PERIOD    2   TIME STEP  966
 
 SOLVING FOR HEAD 

 NO OUTPUT CONTROL FOR STRESS PERIOD    2   TIME STEP  967
 
 SOLVING FOR HEAD 

 NO OUTPUT CONTROL FOR STRESS PERIOD    2   TIME STEP  968
 
 SOLVING FOR HEAD 

 NO OUTPUT CONTROL FOR STRESS PERIOD    2   TIME STEP  969
 
 SOLVING FOR HEAD 

 NO OUTPUT CONTROL FOR STRESS PERIOD    2   TIME STEP  970
 
 SOLVING FOR HEAD 

 NO OUTPUT CONTROL FOR STRESS PERIOD    2   TIME STEP  971
 
 SOLVING FOR HEAD 

 NO OUTPUT CONTROL FOR STRESS PERIOD    2   TIME STEP  972
 
 SOLVING FOR HEAD 

 NO OUTPUT CONTROL FOR STRESS PERIOD    2   TIME STEP  973
 
 SOLVING FOR HEAD 

 NO OUTPUT CONTROL FOR STRESS PERIOD    2   TIME STEP  974
 
 SOLVING FOR HEAD 

 NO OUTPUT CONTROL FOR STRESS PERIOD    2   TIME STEP  975
 
 SOLVING FOR HEAD 

 NO OUTPUT CONTROL FOR STRESS PERIOD    2   TIME STEP  976
 
 SOLVING FOR HEAD 

 NO OUTPUT CONTROL FOR STRESS PERIOD    2   TIME STEP  977
 
 SOLVING FOR HEAD 

 NO OUTPUT CONTROL FOR STRESS PERIOD    2   TIME STEP  978
 
 SOLVING FOR HEAD 

 NO OUTPUT CONTROL FOR STRESS PERIOD    2   TIME STEP  979
 
 SOLVING FOR HEAD 

 NO OUTPUT CONTROL FOR STRESS PERIOD    2   TIME STEP  980
 
 SOLVING FOR HEAD 

 NO OUTPUT CONTROL FOR STRESS PERIOD    2   TIME STEP  981
 
 SOLVING FOR HEAD 

 NO OUTPUT CONTROL FOR STRESS PERIOD    2   TIME STEP  982
 
 SOLVING FOR HEAD 

 NO OUTPUT CONTROL FOR STRESS PERIOD    2   TIME STEP  983
 
 SOLVING FOR HEAD 

 NO OUTPUT CONTROL FOR STRESS PERIOD    2   TIME STEP  984
 
 SOLVING FOR HEAD 

 NO OUTPUT CONTROL FOR STRESS PERIOD    2   TIME STEP  985
 
 SOLVING FOR HEAD 

 NO OUTPUT CONTROL FOR STRESS PERIOD    2   TIME STEP  986
 
 SOLVING FOR HEAD 

 NO OUTPUT CONTROL FOR STRESS PERIOD    2   TIME STEP  987
 
 SOLVING FOR HEAD 

 NO OUTPUT CONTROL FOR STRESS PERIOD    2   TIME STEP  988
 
 SOLVING FOR HEAD 

 NO OUTPUT CONTROL FOR STRESS PERIOD    2   TIME STEP  989
 
 SOLVING FOR HEAD 

 NO OUTPUT CONTROL FOR STRESS PERIOD    2   TIME STEP  990
 
 SOLVING FOR HEAD 

 NO OUTPUT CONTROL FOR STRESS PERIOD    2   TIME STEP  991
 
 SOLVING FOR HEAD 

 NO OUTPUT CONTROL FOR STRESS PERIOD    2   TIME STEP  992
 
 SOLVING FOR HEAD 

 NO OUTPUT CONTROL FOR STRESS PERIOD    2   TIME STEP  993
 
 SOLVING FOR HEAD 

 NO OUTPUT CONTROL FOR STRESS PERIOD    2   TIME STEP  994
 
 SOLVING FOR HEAD 

 NO OUTPUT CONTROL FOR STRESS PERIOD    2   TIME STEP  995
 
 SOLVING FOR HEAD 

 NO OUTPUT CONTROL FOR STRESS PERIOD    2   TIME STEP  996
 
 SOLVING FOR HEAD 

 NO OUTPUT CONTROL FOR STRESS PERIOD    2   TIME STEP  997
 
 SOLVING FOR HEAD 

 NO OUTPUT CONTROL FOR STRESS PERIOD    2   TIME STEP  998
 
 SOLVING FOR HEAD 

 NO OUTPUT CONTROL FOR STRESS PERIOD    2   TIME STEP  999
 
 SOLVING FOR HEAD 

 NO OUTPUT CONTROL FOR STRESS PERIOD    2   TIME STEP 1000
 
 SOLVING FOR HEAD 

 NO OUTPUT CONTROL FOR STRESS PERIOD    2   TIME STEP 1001
 
 SOLVING FOR HEAD 

 NO OUTPUT CONTROL FOR STRESS PERIOD    2   TIME STEP 1002
 
 SOLVING FOR HEAD 

 NO OUTPUT CONTROL FOR STRESS PERIOD    2   TIME STEP 1003
 
 SOLVING FOR HEAD 

 NO OUTPUT CONTROL FOR STRESS PERIOD    2   TIME STEP 1004
 
 SOLVING FOR HEAD 

 NO OUTPUT CONTROL FOR STRESS PERIOD    2   TIME STEP 1005
 
 SOLVING FOR HEAD 

 NO OUTPUT CONTROL FOR STRESS PERIOD    2   TIME STEP 1006
 
 SOLVING FOR HEAD 

 NO OUTPUT CONTROL FOR STRESS PERIOD    2   TIME STEP 1007
 
 SOLVING FOR HEAD 

 NO OUTPUT CONTROL FOR STRESS PERIOD    2   TIME STEP 1008
 
 SOLVING FOR HEAD 

 NO OUTPUT CONTROL FOR STRESS PERIOD    2   TIME STEP 1009
 
 SOLVING FOR HEAD 

 NO OUTPUT CONTROL FOR STRESS PERIOD    2   TIME STEP 1010
 
 SOLVING FOR HEAD 

 NO OUTPUT CONTROL FOR STRESS PERIOD    2   TIME STEP 1011
 
 SOLVING FOR HEAD 

 NO OUTPUT CONTROL FOR STRESS PERIOD    2   TIME STEP 1012
 
 SOLVING FOR HEAD 

 NO OUTPUT CONTROL FOR STRESS PERIOD    2   TIME STEP 1013
 
 SOLVING FOR HEAD 

 NO OUTPUT CONTROL FOR STRESS PERIOD    2   TIME STEP 1014
 
 SOLVING FOR HEAD 

 NO OUTPUT CONTROL FOR STRESS PERIOD    2   TIME STEP 1015
 
 SOLVING FOR HEAD 

 NO OUTPUT CONTROL FOR STRESS PERIOD    2   TIME STEP 1016
 
 SOLVING FOR HEAD 

 NO OUTPUT CONTROL FOR STRESS PERIOD    2   TIME STEP 1017
 
 SOLVING FOR HEAD 

 NO OUTPUT CONTROL FOR STRESS PERIOD    2   TIME STEP 1018
 
 SOLVING FOR HEAD 

 NO OUTPUT CONTROL FOR STRESS PERIOD    2   TIME STEP 1019
 
 SOLVING FOR HEAD 

 NO OUTPUT CONTROL FOR STRESS PERIOD    2   TIME STEP 1020
 
 SOLVING FOR HEAD 

 NO OUTPUT CONTROL FOR STRESS PERIOD    2   TIME STEP 1021
 
 SOLVING FOR HEAD 

 NO OUTPUT CONTROL FOR STRESS PERIOD    2   TIME STEP 1022
 
 SOLVING FOR HEAD 

 NO OUTPUT CONTROL FOR STRESS PERIOD    2   TIME STEP 1023
 
 SOLVING FOR HEAD 

 NO OUTPUT CONTROL FOR STRESS PERIOD    2   TIME STEP 1024
 
 SOLVING FOR HEAD 

 NO OUTPUT CONTROL FOR STRESS PERIOD    2   TIME STEP 1025
 
 SOLVING FOR HEAD 

 NO OUTPUT CONTROL FOR STRESS PERIOD    2   TIME STEP 1026
 
 SOLVING FOR HEAD 

 NO OUTPUT CONTROL FOR STRESS PERIOD    2   TIME STEP 1027
 
 SOLVING FOR HEAD 

 NO OUTPUT CONTROL FOR STRESS PERIOD    2   TIME STEP 1028
 
 SOLVING FOR HEAD 

 NO OUTPUT CONTROL FOR STRESS PERIOD    2   TIME STEP 1029
 
 SOLVING FOR HEAD 

 NO OUTPUT CONTROL FOR STRESS PERIOD    2   TIME STEP 1030
 
 SOLVING FOR HEAD 

 NO OUTPUT CONTROL FOR STRESS PERIOD    2   TIME STEP 1031
 
 SOLVING FOR HEAD 

 NO OUTPUT CONTROL FOR STRESS PERIOD    2   TIME STEP 1032
 
 SOLVING FOR HEAD 

 NO OUTPUT CONTROL FOR STRESS PERIOD    2   TIME STEP 1033
 
 SOLVING FOR HEAD 

 NO OUTPUT CONTROL FOR STRESS PERIOD    2   TIME STEP 1034
 
 SOLVING FOR HEAD 

 NO OUTPUT CONTROL FOR STRESS PERIOD    2   TIME STEP 1035
 
 SOLVING FOR HEAD 

 NO OUTPUT CONTROL FOR STRESS PERIOD    2   TIME STEP 1036
 
 SOLVING FOR HEAD 

 NO OUTPUT CONTROL FOR STRESS PERIOD    2   TIME STEP 1037
 
 SOLVING FOR HEAD 

 NO OUTPUT CONTROL FOR STRESS PERIOD    2   TIME STEP 1038
 
 SOLVING FOR HEAD 

 NO OUTPUT CONTROL FOR STRESS PERIOD    2   TIME STEP 1039
 
 SOLVING FOR HEAD 

 NO OUTPUT CONTROL FOR STRESS PERIOD    2   TIME STEP 1040
 
 SOLVING FOR HEAD 

 NO OUTPUT CONTROL FOR STRESS PERIOD    2   TIME STEP 1041
 
 SOLVING FOR HEAD 

 NO OUTPUT CONTROL FOR STRESS PERIOD    2   TIME STEP 1042
 
 SOLVING FOR HEAD 

 NO OUTPUT CONTROL FOR STRESS PERIOD    2   TIME STEP 1043
 
 SOLVING FOR HEAD 

 NO OUTPUT CONTROL FOR STRESS PERIOD    2   TIME STEP 1044
 
 SOLVING FOR HEAD 

 NO OUTPUT CONTROL FOR STRESS PERIOD    2   TIME STEP 1045
 
 SOLVING FOR HEAD 

 NO OUTPUT CONTROL FOR STRESS PERIOD    2   TIME STEP 1046
 
 SOLVING FOR HEAD 

 NO OUTPUT CONTROL FOR STRESS PERIOD    2   TIME STEP 1047
 
 SOLVING FOR HEAD 

 NO OUTPUT CONTROL FOR STRESS PERIOD    2   TIME STEP 1048
 
 SOLVING FOR HEAD 

 NO OUTPUT CONTROL FOR STRESS PERIOD    2   TIME STEP 1049
 
 SOLVING FOR HEAD 

 NO OUTPUT CONTROL FOR STRESS PERIOD    2   TIME STEP 1050
 
 SOLVING FOR HEAD 

 NO OUTPUT CONTROL FOR STRESS PERIOD    2   TIME STEP 1051
 
 SOLVING FOR HEAD 

 NO OUTPUT CONTROL FOR STRESS PERIOD    2   TIME STEP 1052
 
 SOLVING FOR HEAD 

 NO OUTPUT CONTROL FOR STRESS PERIOD    2   TIME STEP 1053
 
 SOLVING FOR HEAD 

 NO OUTPUT CONTROL FOR STRESS PERIOD    2   TIME STEP 1054
 
 SOLVING FOR HEAD 

 NO OUTPUT CONTROL FOR STRESS PERIOD    2   TIME STEP 1055
 
 SOLVING FOR HEAD 

 NO OUTPUT CONTROL FOR STRESS PERIOD    2   TIME STEP 1056
 
 SOLVING FOR HEAD 

 NO OUTPUT CONTROL FOR STRESS PERIOD    2   TIME STEP 1057
 
 SOLVING FOR HEAD 

 NO OUTPUT CONTROL FOR STRESS PERIOD    2   TIME STEP 1058
 
 SOLVING FOR HEAD 

 NO OUTPUT CONTROL FOR STRESS PERIOD    2   TIME STEP 1059
 
 SOLVING FOR HEAD 

 NO OUTPUT CONTROL FOR STRESS PERIOD    2   TIME STEP 1060
 
 SOLVING FOR HEAD 

 NO OUTPUT CONTROL FOR STRESS PERIOD    2   TIME STEP 1061
 
 SOLVING FOR HEAD 

 NO OUTPUT CONTROL FOR STRESS PERIOD    2   TIME STEP 1062
 
 SOLVING FOR HEAD 

 NO OUTPUT CONTROL FOR STRESS PERIOD    2   TIME STEP 1063
 
 SOLVING FOR HEAD 

 NO OUTPUT CONTROL FOR STRESS PERIOD    2   TIME STEP 1064
 
 SOLVING FOR HEAD 

 NO OUTPUT CONTROL FOR STRESS PERIOD    2   TIME STEP 1065
 
 SOLVING FOR HEAD 

 NO OUTPUT CONTROL FOR STRESS PERIOD    2   TIME STEP 1066
 
 SOLVING FOR HEAD 

 NO OUTPUT CONTROL FOR STRESS PERIOD    2   TIME STEP 1067
 
 SOLVING FOR HEAD 

 NO OUTPUT CONTROL FOR STRESS PERIOD    2   TIME STEP 1068
 
 SOLVING FOR HEAD 

 NO OUTPUT CONTROL FOR STRESS PERIOD    2   TIME STEP 1069
 
 SOLVING FOR HEAD 

 NO OUTPUT CONTROL FOR STRESS PERIOD    2   TIME STEP 1070
 
 SOLVING FOR HEAD 

 NO OUTPUT CONTROL FOR STRESS PERIOD    2   TIME STEP 1071
 
 SOLVING FOR HEAD 

 NO OUTPUT CONTROL FOR STRESS PERIOD    2   TIME STEP 1072
 
 SOLVING FOR HEAD 

 NO OUTPUT CONTROL FOR STRESS PERIOD    2   TIME STEP 1073
 
 SOLVING FOR HEAD 

 NO OUTPUT CONTROL FOR STRESS PERIOD    2   TIME STEP 1074
 
 SOLVING FOR HEAD 

 NO OUTPUT CONTROL FOR STRESS PERIOD    2   TIME STEP 1075
 
 SOLVING FOR HEAD 

 NO OUTPUT CONTROL FOR STRESS PERIOD    2   TIME STEP 1076
 
 SOLVING FOR HEAD 

 NO OUTPUT CONTROL FOR STRESS PERIOD    2   TIME STEP 1077
 
 SOLVING FOR HEAD 

 NO OUTPUT CONTROL FOR STRESS PERIOD    2   TIME STEP 1078
 
 SOLVING FOR HEAD 

 NO OUTPUT CONTROL FOR STRESS PERIOD    2   TIME STEP 1079
 
 SOLVING FOR HEAD 

 NO OUTPUT CONTROL FOR STRESS PERIOD    2   TIME STEP 1080
 
 SOLVING FOR HEAD 

 NO OUTPUT CONTROL FOR STRESS PERIOD    2   TIME STEP 1081
 
 SOLVING FOR HEAD 

 NO OUTPUT CONTROL FOR STRESS PERIOD    2   TIME STEP 1082
 
 SOLVING FOR HEAD 

 NO OUTPUT CONTROL FOR STRESS PERIOD    2   TIME STEP 1083
 
 SOLVING FOR HEAD 

 NO OUTPUT CONTROL FOR STRESS PERIOD    2   TIME STEP 1084
 
 SOLVING FOR HEAD 

 NO OUTPUT CONTROL FOR STRESS PERIOD    2   TIME STEP 1085
 
 SOLVING FOR HEAD 

 NO OUTPUT CONTROL FOR STRESS PERIOD    2   TIME STEP 1086
 
 SOLVING FOR HEAD 

 NO OUTPUT CONTROL FOR STRESS PERIOD    2   TIME STEP 1087
 
 SOLVING FOR HEAD 

 NO OUTPUT CONTROL FOR STRESS PERIOD    2   TIME STEP 1088
 
 SOLVING FOR HEAD 

 NO OUTPUT CONTROL FOR STRESS PERIOD    2   TIME STEP 1089
 
 SOLVING FOR HEAD 

 NO OUTPUT CONTROL FOR STRESS PERIOD    2   TIME STEP 1090
 
 SOLVING FOR HEAD 

 NO OUTPUT CONTROL FOR STRESS PERIOD    2   TIME STEP 1091
 
 SOLVING FOR HEAD 

 NO OUTPUT CONTROL FOR STRESS PERIOD    2   TIME STEP 1092
 
 SOLVING FOR HEAD 

 NO OUTPUT CONTROL FOR STRESS PERIOD    2   TIME STEP 1093
 
 SOLVING FOR HEAD 

 NO OUTPUT CONTROL FOR STRESS PERIOD    2   TIME STEP 1094
 
 SOLVING FOR HEAD 

 NO OUTPUT CONTROL FOR STRESS PERIOD    2   TIME STEP 1095
 
 SOLVING FOR HEAD 

 NO OUTPUT CONTROL FOR STRESS PERIOD    2   TIME STEP 1096
 
 SOLVING FOR HEAD 

 NO OUTPUT CONTROL FOR STRESS PERIOD    2   TIME STEP 1097
 
 SOLVING FOR HEAD 

 NO OUTPUT CONTROL FOR STRESS PERIOD    2   TIME STEP 1098
 
 SOLVING FOR HEAD 

 NO OUTPUT CONTROL FOR STRESS PERIOD    2   TIME STEP 1099
 
 SOLVING FOR HEAD 

 NO OUTPUT CONTROL FOR STRESS PERIOD    2   TIME STEP 1100
 
 SOLVING FOR HEAD 

 NO OUTPUT CONTROL FOR STRESS PERIOD    2   TIME STEP 1101
 
 SOLVING FOR HEAD 

 NO OUTPUT CONTROL FOR STRESS PERIOD    2   TIME STEP 1102
 
 SOLVING FOR HEAD 

 NO OUTPUT CONTROL FOR STRESS PERIOD    2   TIME STEP 1103
 
 SOLVING FOR HEAD 

 NO OUTPUT CONTROL FOR STRESS PERIOD    2   TIME STEP 1104
 
 SOLVING FOR HEAD 

 NO OUTPUT CONTROL FOR STRESS PERIOD    2   TIME STEP 1105
 
 SOLVING FOR HEAD 

 NO OUTPUT CONTROL FOR STRESS PERIOD    2   TIME STEP 1106
 
 SOLVING FOR HEAD 

 NO OUTPUT CONTROL FOR STRESS PERIOD    2   TIME STEP 1107
 
 SOLVING FOR HEAD 

 NO OUTPUT CONTROL FOR STRESS PERIOD    2   TIME STEP 1108
 
 SOLVING FOR HEAD 

 NO OUTPUT CONTROL FOR STRESS PERIOD    2   TIME STEP 1109
 
 SOLVING FOR HEAD 

 NO OUTPUT CONTROL FOR STRESS PERIOD    2   TIME STEP 1110
 
 SOLVING FOR HEAD 

 NO OUTPUT CONTROL FOR STRESS PERIOD    2   TIME STEP 1111
 
 SOLVING FOR HEAD 

 NO OUTPUT CONTROL FOR STRESS PERIOD    2   TIME STEP 1112
 
 SOLVING FOR HEAD 

 NO OUTPUT CONTROL FOR STRESS PERIOD    2   TIME STEP 1113
 
 SOLVING FOR HEAD 

 NO OUTPUT CONTROL FOR STRESS PERIOD    2   TIME STEP 1114
 
 SOLVING FOR HEAD 

 NO OUTPUT CONTROL FOR STRESS PERIOD    2   TIME STEP 1115
 
 SOLVING FOR HEAD 

 NO OUTPUT CONTROL FOR STRESS PERIOD    2   TIME STEP 1116
 
 SOLVING FOR HEAD 

 NO OUTPUT CONTROL FOR STRESS PERIOD    2   TIME STEP 1117
 
 SOLVING FOR HEAD 

 NO OUTPUT CONTROL FOR STRESS PERIOD    2   TIME STEP 1118
 
 SOLVING FOR HEAD 

 NO OUTPUT CONTROL FOR STRESS PERIOD    2   TIME STEP 1119
 
 SOLVING FOR HEAD 

 NO OUTPUT CONTROL FOR STRESS PERIOD    2   TIME STEP 1120
 
 SOLVING FOR HEAD 

 NO OUTPUT CONTROL FOR STRESS PERIOD    2   TIME STEP 1121
 
 SOLVING FOR HEAD 

 NO OUTPUT CONTROL FOR STRESS PERIOD    2   TIME STEP 1122
 
 SOLVING FOR HEAD 

 NO OUTPUT CONTROL FOR STRESS PERIOD    2   TIME STEP 1123
 
 SOLVING FOR HEAD 

 NO OUTPUT CONTROL FOR STRESS PERIOD    2   TIME STEP 1124
 
 SOLVING FOR HEAD 

 NO OUTPUT CONTROL FOR STRESS PERIOD    2   TIME STEP 1125
 
 SOLVING FOR HEAD 

 NO OUTPUT CONTROL FOR STRESS PERIOD    2   TIME STEP 1126
 
 SOLVING FOR HEAD 

 NO OUTPUT CONTROL FOR STRESS PERIOD    2   TIME STEP 1127
 
 SOLVING FOR HEAD 

 NO OUTPUT CONTROL FOR STRESS PERIOD    2   TIME STEP 1128
 
 SOLVING FOR HEAD 

 NO OUTPUT CONTROL FOR STRESS PERIOD    2   TIME STEP 1129
 
 SOLVING FOR HEAD 

 NO OUTPUT CONTROL FOR STRESS PERIOD    2   TIME STEP 1130
 
 SOLVING FOR HEAD 

 NO OUTPUT CONTROL FOR STRESS PERIOD    2   TIME STEP 1131
 
 SOLVING FOR HEAD 

 NO OUTPUT CONTROL FOR STRESS PERIOD    2   TIME STEP 1132
 
 SOLVING FOR HEAD 

 NO OUTPUT CONTROL FOR STRESS PERIOD    2   TIME STEP 1133
 
 SOLVING FOR HEAD 

 NO OUTPUT CONTROL FOR STRESS PERIOD    2   TIME STEP 1134
 
 SOLVING FOR HEAD 

 NO OUTPUT CONTROL FOR STRESS PERIOD    2   TIME STEP 1135
 
 SOLVING FOR HEAD 

 NO OUTPUT CONTROL FOR STRESS PERIOD    2   TIME STEP 1136
 
 SOLVING FOR HEAD 

 NO OUTPUT CONTROL FOR STRESS PERIOD    2   TIME STEP 1137
 
 SOLVING FOR HEAD 

 NO OUTPUT CONTROL FOR STRESS PERIOD    2   TIME STEP 1138
 
 SOLVING FOR HEAD 

 NO OUTPUT CONTROL FOR STRESS PERIOD    2   TIME STEP 1139
 
 SOLVING FOR HEAD 

 NO OUTPUT CONTROL FOR STRESS PERIOD    2   TIME STEP 1140
 
 SOLVING FOR HEAD 

 NO OUTPUT CONTROL FOR STRESS PERIOD    2   TIME STEP 1141
 
 SOLVING FOR HEAD 

 NO OUTPUT CONTROL FOR STRESS PERIOD    2   TIME STEP 1142
 
 SOLVING FOR HEAD 

 NO OUTPUT CONTROL FOR STRESS PERIOD    2   TIME STEP 1143
 
 SOLVING FOR HEAD 

 NO OUTPUT CONTROL FOR STRESS PERIOD    2   TIME STEP 1144
 
 SOLVING FOR HEAD 

 NO OUTPUT CONTROL FOR STRESS PERIOD    2   TIME STEP 1145
 
 SOLVING FOR HEAD 

 NO OUTPUT CONTROL FOR STRESS PERIOD    2   TIME STEP 1146
 
 SOLVING FOR HEAD 

 NO OUTPUT CONTROL FOR STRESS PERIOD    2   TIME STEP 1147
 
 SOLVING FOR HEAD 

 NO OUTPUT CONTROL FOR STRESS PERIOD    2   TIME STEP 1148
 
 SOLVING FOR HEAD 

 NO OUTPUT CONTROL FOR STRESS PERIOD    2   TIME STEP 1149
 
 SOLVING FOR HEAD 

 NO OUTPUT CONTROL FOR STRESS PERIOD    2   TIME STEP 1150
 
 SOLVING FOR HEAD 

 NO OUTPUT CONTROL FOR STRESS PERIOD    2   TIME STEP 1151
 
 SOLVING FOR HEAD 

 NO OUTPUT CONTROL FOR STRESS PERIOD    2   TIME STEP 1152
 
 SOLVING FOR HEAD 

 NO OUTPUT CONTROL FOR STRESS PERIOD    2   TIME STEP 1153
 
 SOLVING FOR HEAD 

 NO OUTPUT CONTROL FOR STRESS PERIOD    2   TIME STEP 1154
 
 SOLVING FOR HEAD 

 NO OUTPUT CONTROL FOR STRESS PERIOD    2   TIME STEP 1155
 
 SOLVING FOR HEAD 

 NO OUTPUT CONTROL FOR STRESS PERIOD    2   TIME STEP 1156
 
 SOLVING FOR HEAD 

 NO OUTPUT CONTROL FOR STRESS PERIOD    2   TIME STEP 1157
 
 SOLVING FOR HEAD 

 NO OUTPUT CONTROL FOR STRESS PERIOD    2   TIME STEP 1158
 
 SOLVING FOR HEAD 

 NO OUTPUT CONTROL FOR STRESS PERIOD    2   TIME STEP 1159
 
 SOLVING FOR HEAD 

 NO OUTPUT CONTROL FOR STRESS PERIOD    2   TIME STEP 1160
 
 SOLVING FOR HEAD 

 NO OUTPUT CONTROL FOR STRESS PERIOD    2   TIME STEP 1161
 
 SOLVING FOR HEAD 

 NO OUTPUT CONTROL FOR STRESS PERIOD    2   TIME STEP 1162
 
 SOLVING FOR HEAD 

 NO OUTPUT CONTROL FOR STRESS PERIOD    2   TIME STEP 1163
 
 SOLVING FOR HEAD 

 NO OUTPUT CONTROL FOR STRESS PERIOD    2   TIME STEP 1164
 
 SOLVING FOR HEAD 

 NO OUTPUT CONTROL FOR STRESS PERIOD    2   TIME STEP 1165
 
 SOLVING FOR HEAD 

 NO OUTPUT CONTROL FOR STRESS PERIOD    2   TIME STEP 1166
 
 SOLVING FOR HEAD 

 NO OUTPUT CONTROL FOR STRESS PERIOD    2   TIME STEP 1167
 
 SOLVING FOR HEAD 

 NO OUTPUT CONTROL FOR STRESS PERIOD    2   TIME STEP 1168
 
 SOLVING FOR HEAD 

 NO OUTPUT CONTROL FOR STRESS PERIOD    2   TIME STEP 1169
 
 SOLVING FOR HEAD 

 NO OUTPUT CONTROL FOR STRESS PERIOD    2   TIME STEP 1170
 
 SOLVING FOR HEAD 

 NO OUTPUT CONTROL FOR STRESS PERIOD    2   TIME STEP 1171
 
 SOLVING FOR HEAD 

 NO OUTPUT CONTROL FOR STRESS PERIOD    2   TIME STEP 1172
 
 SOLVING FOR HEAD 

 NO OUTPUT CONTROL FOR STRESS PERIOD    2   TIME STEP 1173
 
 SOLVING FOR HEAD 

 NO OUTPUT CONTROL FOR STRESS PERIOD    2   TIME STEP 1174
 
 SOLVING FOR HEAD 

 NO OUTPUT CONTROL FOR STRESS PERIOD    2   TIME STEP 1175
 
 SOLVING FOR HEAD 

 NO OUTPUT CONTROL FOR STRESS PERIOD    2   TIME STEP 1176
 
 SOLVING FOR HEAD 

 NO OUTPUT CONTROL FOR STRESS PERIOD    2   TIME STEP 1177
 
 SOLVING FOR HEAD 

 NO OUTPUT CONTROL FOR STRESS PERIOD    2   TIME STEP 1178
 
 SOLVING FOR HEAD 

 NO OUTPUT CONTROL FOR STRESS PERIOD    2   TIME STEP 1179
 
 SOLVING FOR HEAD 

 NO OUTPUT CONTROL FOR STRESS PERIOD    2   TIME STEP 1180
 
 SOLVING FOR HEAD 

 NO OUTPUT CONTROL FOR STRESS PERIOD    2   TIME STEP 1181
 
 SOLVING FOR HEAD 

 NO OUTPUT CONTROL FOR STRESS PERIOD    2   TIME STEP 1182
 
 SOLVING FOR HEAD 

 NO OUTPUT CONTROL FOR STRESS PERIOD    2   TIME STEP 1183
 
 SOLVING FOR HEAD 

 NO OUTPUT CONTROL FOR STRESS PERIOD    2   TIME STEP 1184
 
 SOLVING FOR HEAD 

 NO OUTPUT CONTROL FOR STRESS PERIOD    2   TIME STEP 1185
 
 SOLVING FOR HEAD 

 NO OUTPUT CONTROL FOR STRESS PERIOD    2   TIME STEP 1186
 
 SOLVING FOR HEAD 

 NO OUTPUT CONTROL FOR STRESS PERIOD    2   TIME STEP 1187
 
 SOLVING FOR HEAD 

 NO OUTPUT CONTROL FOR STRESS PERIOD    2   TIME STEP 1188
 
 SOLVING FOR HEAD 

 NO OUTPUT CONTROL FOR STRESS PERIOD    2   TIME STEP 1189
 
 SOLVING FOR HEAD 

 NO OUTPUT CONTROL FOR STRESS PERIOD    2   TIME STEP 1190
 
 SOLVING FOR HEAD 

 NO OUTPUT CONTROL FOR STRESS PERIOD    2   TIME STEP 1191
 
 SOLVING FOR HEAD 

 NO OUTPUT CONTROL FOR STRESS PERIOD    2   TIME STEP 1192
 
 SOLVING FOR HEAD 

 NO OUTPUT CONTROL FOR STRESS PERIOD    2   TIME STEP 1193
 
 SOLVING FOR HEAD 

 NO OUTPUT CONTROL FOR STRESS PERIOD    2   TIME STEP 1194
 
 SOLVING FOR HEAD 

 NO OUTPUT CONTROL FOR STRESS PERIOD    2   TIME STEP 1195
 
 SOLVING FOR HEAD 

 NO OUTPUT CONTROL FOR STRESS PERIOD    2   TIME STEP 1196
 
 SOLVING FOR HEAD 

 NO OUTPUT CONTROL FOR STRESS PERIOD    2   TIME STEP 1197
 
 SOLVING FOR HEAD 

 NO OUTPUT CONTROL FOR STRESS PERIOD    2   TIME STEP 1198
 
 SOLVING FOR HEAD 

 NO OUTPUT CONTROL FOR STRESS PERIOD    2   TIME STEP 1199
 
 SOLVING FOR HEAD 

 NO OUTPUT CONTROL FOR STRESS PERIOD    2   TIME STEP 1200
 
 SOLVING FOR HEAD 

 NO OUTPUT CONTROL FOR STRESS PERIOD    2   TIME STEP 1201
 
 SOLVING FOR HEAD 

 NO OUTPUT CONTROL FOR STRESS PERIOD    2   TIME STEP 1202
 
 SOLVING FOR HEAD 

 NO OUTPUT CONTROL FOR STRESS PERIOD    2   TIME STEP 1203
 
 SOLVING FOR HEAD 

 NO OUTPUT CONTROL FOR STRESS PERIOD    2   TIME STEP 1204
 
 SOLVING FOR HEAD 

 NO OUTPUT CONTROL FOR STRESS PERIOD    2   TIME STEP 1205
 
 SOLVING FOR HEAD 

 NO OUTPUT CONTROL FOR STRESS PERIOD    2   TIME STEP 1206
 
 SOLVING FOR HEAD 

 NO OUTPUT CONTROL FOR STRESS PERIOD    2   TIME STEP 1207
 
 SOLVING FOR HEAD 

 NO OUTPUT CONTROL FOR STRESS PERIOD    2   TIME STEP 1208
 
 SOLVING FOR HEAD 

 NO OUTPUT CONTROL FOR STRESS PERIOD    2   TIME STEP 1209
 
 SOLVING FOR HEAD 

 NO OUTPUT CONTROL FOR STRESS PERIOD    2   TIME STEP 1210
 
 SOLVING FOR HEAD 

 NO OUTPUT CONTROL FOR STRESS PERIOD    2   TIME STEP 1211
 
 SOLVING FOR HEAD 

 NO OUTPUT CONTROL FOR STRESS PERIOD    2   TIME STEP 1212
 
 SOLVING FOR HEAD 

 NO OUTPUT CONTROL FOR STRESS PERIOD    2   TIME STEP 1213
 
 SOLVING FOR HEAD 

 NO OUTPUT CONTROL FOR STRESS PERIOD    2   TIME STEP 1214
 
 SOLVING FOR HEAD 

 NO OUTPUT CONTROL FOR STRESS PERIOD    2   TIME STEP 1215
 
 SOLVING FOR HEAD 

 NO OUTPUT CONTROL FOR STRESS PERIOD    2   TIME STEP 1216
 
 SOLVING FOR HEAD 

 NO OUTPUT CONTROL FOR STRESS PERIOD    2   TIME STEP 1217
 
 SOLVING FOR HEAD 

 NO OUTPUT CONTROL FOR STRESS PERIOD    2   TIME STEP 1218
 
 SOLVING FOR HEAD 

 NO OUTPUT CONTROL FOR STRESS PERIOD    2   TIME STEP 1219
 
 SOLVING FOR HEAD 

 NO OUTPUT CONTROL FOR STRESS PERIOD    2   TIME STEP 1220
 
 SOLVING FOR HEAD 

 NO OUTPUT CONTROL FOR STRESS PERIOD    2   TIME STEP 1221
 
 SOLVING FOR HEAD 

 NO OUTPUT CONTROL FOR STRESS PERIOD    2   TIME STEP 1222
 
 SOLVING FOR HEAD 

 NO OUTPUT CONTROL FOR STRESS PERIOD    2   TIME STEP 1223
 
 SOLVING FOR HEAD 

 NO OUTPUT CONTROL FOR STRESS PERIOD    2   TIME STEP 1224
 
 SOLVING FOR HEAD 

 NO OUTPUT CONTROL FOR STRESS PERIOD    2   TIME STEP 1225
 
 SOLVING FOR HEAD 

 NO OUTPUT CONTROL FOR STRESS PERIOD    2   TIME STEP 1226
 
 SOLVING FOR HEAD 

 NO OUTPUT CONTROL FOR STRESS PERIOD    2   TIME STEP 1227
 
 SOLVING FOR HEAD 

 NO OUTPUT CONTROL FOR STRESS PERIOD    2   TIME STEP 1228
 
 SOLVING FOR HEAD 

 NO OUTPUT CONTROL FOR STRESS PERIOD    2   TIME STEP 1229
 
 SOLVING FOR HEAD 

 NO OUTPUT CONTROL FOR STRESS PERIOD    2   TIME STEP 1230
 
 SOLVING FOR HEAD 

 NO OUTPUT CONTROL FOR STRESS PERIOD    2   TIME STEP 1231
 
 SOLVING FOR HEAD 

 NO OUTPUT CONTROL FOR STRESS PERIOD    2   TIME STEP 1232
 
 SOLVING FOR HEAD 

 NO OUTPUT CONTROL FOR STRESS PERIOD    2   TIME STEP 1233
 
 SOLVING FOR HEAD 

 NO OUTPUT CONTROL FOR STRESS PERIOD    2   TIME STEP 1234
 
 SOLVING FOR HEAD 

 NO OUTPUT CONTROL FOR STRESS PERIOD    2   TIME STEP 1235
 
 SOLVING FOR HEAD 

 NO OUTPUT CONTROL FOR STRESS PERIOD    2   TIME STEP 1236
 
 SOLVING FOR HEAD 

 NO OUTPUT CONTROL FOR STRESS PERIOD    2   TIME STEP 1237
 
 SOLVING FOR HEAD 

 NO OUTPUT CONTROL FOR STRESS PERIOD    2   TIME STEP 1238
 
 SOLVING FOR HEAD 

 NO OUTPUT CONTROL FOR STRESS PERIOD    2   TIME STEP 1239
 
 SOLVING FOR HEAD 

 NO OUTPUT CONTROL FOR STRESS PERIOD    2   TIME STEP 1240
 
 SOLVING FOR HEAD 

 NO OUTPUT CONTROL FOR STRESS PERIOD    2   TIME STEP 1241
 
 SOLVING FOR HEAD 

 NO OUTPUT CONTROL FOR STRESS PERIOD    2   TIME STEP 1242
 
 SOLVING FOR HEAD 

 NO OUTPUT CONTROL FOR STRESS PERIOD    2   TIME STEP 1243
 
 SOLVING FOR HEAD 

 NO OUTPUT CONTROL FOR STRESS PERIOD    2   TIME STEP 1244
 
 SOLVING FOR HEAD 

 NO OUTPUT CONTROL FOR STRESS PERIOD    2   TIME STEP 1245
 
 SOLVING FOR HEAD 

 NO OUTPUT CONTROL FOR STRESS PERIOD    2   TIME STEP 1246
 
 SOLVING FOR HEAD 

 NO OUTPUT CONTROL FOR STRESS PERIOD    2   TIME STEP 1247
 
 SOLVING FOR HEAD 

 NO OUTPUT CONTROL FOR STRESS PERIOD    2   TIME STEP 1248
 
 SOLVING FOR HEAD 

 NO OUTPUT CONTROL FOR STRESS PERIOD    2   TIME STEP 1249
 
 SOLVING FOR HEAD 

 NO OUTPUT CONTROL FOR STRESS PERIOD    2   TIME STEP 1250
 
 SOLVING FOR HEAD 

 NO OUTPUT CONTROL FOR STRESS PERIOD    2   TIME STEP 1251
 
 SOLVING FOR HEAD 

 NO OUTPUT CONTROL FOR STRESS PERIOD    2   TIME STEP 1252
 
 SOLVING FOR HEAD 

 NO OUTPUT CONTROL FOR STRESS PERIOD    2   TIME STEP 1253
 
 SOLVING FOR HEAD 

 NO OUTPUT CONTROL FOR STRESS PERIOD    2   TIME STEP 1254
 
 SOLVING FOR HEAD 

 NO OUTPUT CONTROL FOR STRESS PERIOD    2   TIME STEP 1255
 
 SOLVING FOR HEAD 

 NO OUTPUT CONTROL FOR STRESS PERIOD    2   TIME STEP 1256
 
 SOLVING FOR HEAD 

 NO OUTPUT CONTROL FOR STRESS PERIOD    2   TIME STEP 1257
 
 SOLVING FOR HEAD 

 NO OUTPUT CONTROL FOR STRESS PERIOD    2   TIME STEP 1258
 
 SOLVING FOR HEAD 

 NO OUTPUT CONTROL FOR STRESS PERIOD    2   TIME STEP 1259
 
 SOLVING FOR HEAD 

 NO OUTPUT CONTROL FOR STRESS PERIOD    2   TIME STEP 1260
 
 SOLVING FOR HEAD 

 NO OUTPUT CONTROL FOR STRESS PERIOD    2   TIME STEP 1261
 
 SOLVING FOR HEAD 

 NO OUTPUT CONTROL FOR STRESS PERIOD    2   TIME STEP 1262
 
 SOLVING FOR HEAD 

 NO OUTPUT CONTROL FOR STRESS PERIOD    2   TIME STEP 1263
 
 SOLVING FOR HEAD 

 NO OUTPUT CONTROL FOR STRESS PERIOD    2   TIME STEP 1264
 
 SOLVING FOR HEAD 

 NO OUTPUT CONTROL FOR STRESS PERIOD    2   TIME STEP 1265
 
 SOLVING FOR HEAD 

 NO OUTPUT CONTROL FOR STRESS PERIOD    2   TIME STEP 1266
 
 SOLVING FOR HEAD 

 NO OUTPUT CONTROL FOR STRESS PERIOD    2   TIME STEP 1267
 
 SOLVING FOR HEAD 

 NO OUTPUT CONTROL FOR STRESS PERIOD    2   TIME STEP 1268
 
 SOLVING FOR HEAD 

 NO OUTPUT CONTROL FOR STRESS PERIOD    2   TIME STEP 1269
 
 SOLVING FOR HEAD 

 NO OUTPUT CONTROL FOR STRESS PERIOD    2   TIME STEP 1270
 
 SOLVING FOR HEAD 

 NO OUTPUT CONTROL FOR STRESS PERIOD    2   TIME STEP 1271
 
 SOLVING FOR HEAD 

 NO OUTPUT CONTROL FOR STRESS PERIOD    2   TIME STEP 1272
 
 SOLVING FOR HEAD 

 NO OUTPUT CONTROL FOR STRESS PERIOD    2   TIME STEP 1273
 
 SOLVING FOR HEAD 

 NO OUTPUT CONTROL FOR STRESS PERIOD    2   TIME STEP 1274
 
 SOLVING FOR HEAD 

 NO OUTPUT CONTROL FOR STRESS PERIOD    2   TIME STEP 1275
 
 SOLVING FOR HEAD 

 NO OUTPUT CONTROL FOR STRESS PERIOD    2   TIME STEP 1276
 
 SOLVING FOR HEAD 

 NO OUTPUT CONTROL FOR STRESS PERIOD    2   TIME STEP 1277
 
 SOLVING FOR HEAD 

 NO OUTPUT CONTROL FOR STRESS PERIOD    2   TIME STEP 1278
 
 SOLVING FOR HEAD 

 NO OUTPUT CONTROL FOR STRESS PERIOD    2   TIME STEP 1279
 
 SOLVING FOR HEAD 

 NO OUTPUT CONTROL FOR STRESS PERIOD    2   TIME STEP 1280
 
 SOLVING FOR HEAD 

 NO OUTPUT CONTROL FOR STRESS PERIOD    2   TIME STEP 1281
 
 SOLVING FOR HEAD 

 NO OUTPUT CONTROL FOR STRESS PERIOD    2   TIME STEP 1282
 
 SOLVING FOR HEAD 

 NO OUTPUT CONTROL FOR STRESS PERIOD    2   TIME STEP 1283
 
 SOLVING FOR HEAD 

 NO OUTPUT CONTROL FOR STRESS PERIOD    2   TIME STEP 1284
 
 SOLVING FOR HEAD 

 NO OUTPUT CONTROL FOR STRESS PERIOD    2   TIME STEP 1285
 
 SOLVING FOR HEAD 

 NO OUTPUT CONTROL FOR STRESS PERIOD    2   TIME STEP 1286
 
 SOLVING FOR HEAD 

 NO OUTPUT CONTROL FOR STRESS PERIOD    2   TIME STEP 1287
 
 SOLVING FOR HEAD 

 NO OUTPUT CONTROL FOR STRESS PERIOD    2   TIME STEP 1288
 
 SOLVING FOR HEAD 

 NO OUTPUT CONTROL FOR STRESS PERIOD    2   TIME STEP 1289
 
 SOLVING FOR HEAD 

 NO OUTPUT CONTROL FOR STRESS PERIOD    2   TIME STEP 1290
 
 SOLVING FOR HEAD 

 NO OUTPUT CONTROL FOR STRESS PERIOD    2   TIME STEP 1291
 
 SOLVING FOR HEAD 

 NO OUTPUT CONTROL FOR STRESS PERIOD    2   TIME STEP 1292
 
 SOLVING FOR HEAD 

 NO OUTPUT CONTROL FOR STRESS PERIOD    2   TIME STEP 1293
 
 SOLVING FOR HEAD 

 NO OUTPUT CONTROL FOR STRESS PERIOD    2   TIME STEP 1294
 
 SOLVING FOR HEAD 

 NO OUTPUT CONTROL FOR STRESS PERIOD    2   TIME STEP 1295
 
 SOLVING FOR HEAD 

 NO OUTPUT CONTROL FOR STRESS PERIOD    2   TIME STEP 1296
 
 SOLVING FOR HEAD 

 NO OUTPUT CONTROL FOR STRESS PERIOD    2   TIME STEP 1297
 
 SOLVING FOR HEAD 

 NO OUTPUT CONTROL FOR STRESS PERIOD    2   TIME STEP 1298
 
 SOLVING FOR HEAD 

 NO OUTPUT CONTROL FOR STRESS PERIOD    2   TIME STEP 1299
 
 SOLVING FOR HEAD 

 NO OUTPUT CONTROL FOR STRESS PERIOD    2   TIME STEP 1300
 
 SOLVING FOR HEAD 

 NO OUTPUT CONTROL FOR STRESS PERIOD    2   TIME STEP 1301
 
 SOLVING FOR HEAD 

 NO OUTPUT CONTROL FOR STRESS PERIOD    2   TIME STEP 1302
 
 SOLVING FOR HEAD 

 NO OUTPUT CONTROL FOR STRESS PERIOD    2   TIME STEP 1303
 
 SOLVING FOR HEAD 

 NO OUTPUT CONTROL FOR STRESS PERIOD    2   TIME STEP 1304
 
 SOLVING FOR HEAD 

 NO OUTPUT CONTROL FOR STRESS PERIOD    2   TIME STEP 1305
 
 SOLVING FOR HEAD 

 NO OUTPUT CONTROL FOR STRESS PERIOD    2   TIME STEP 1306
 
 SOLVING FOR HEAD 

 NO OUTPUT CONTROL FOR STRESS PERIOD    2   TIME STEP 1307
 
 SOLVING FOR HEAD 

 NO OUTPUT CONTROL FOR STRESS PERIOD    2   TIME STEP 1308
 
 SOLVING FOR HEAD 

 NO OUTPUT CONTROL FOR STRESS PERIOD    2   TIME STEP 1309
 
 SOLVING FOR HEAD 

 NO OUTPUT CONTROL FOR STRESS PERIOD    2   TIME STEP 1310
 
 SOLVING FOR HEAD 

 NO OUTPUT CONTROL FOR STRESS PERIOD    2   TIME STEP 1311
 
 SOLVING FOR HEAD 

 NO OUTPUT CONTROL FOR STRESS PERIOD    2   TIME STEP 1312
 
 SOLVING FOR HEAD 

 NO OUTPUT CONTROL FOR STRESS PERIOD    2   TIME STEP 1313
 
 SOLVING FOR HEAD 

 NO OUTPUT CONTROL FOR STRESS PERIOD    2   TIME STEP 1314
 
 SOLVING FOR HEAD 

 NO OUTPUT CONTROL FOR STRESS PERIOD    2   TIME STEP 1315
 
 SOLVING FOR HEAD 

 NO OUTPUT CONTROL FOR STRESS PERIOD    2   TIME STEP 1316
 
 SOLVING FOR HEAD 

 NO OUTPUT CONTROL FOR STRESS PERIOD    2   TIME STEP 1317
 
 SOLVING FOR HEAD 

 NO OUTPUT CONTROL FOR STRESS PERIOD    2   TIME STEP 1318
 
 SOLVING FOR HEAD 

 NO OUTPUT CONTROL FOR STRESS PERIOD    2   TIME STEP 1319
 
 SOLVING FOR HEAD 

 NO OUTPUT CONTROL FOR STRESS PERIOD    2   TIME STEP 1320
 
 SOLVING FOR HEAD 

 NO OUTPUT CONTROL FOR STRESS PERIOD    2   TIME STEP 1321
 
 SOLVING FOR HEAD 

 NO OUTPUT CONTROL FOR STRESS PERIOD    2   TIME STEP 1322
 
 SOLVING FOR HEAD 

 NO OUTPUT CONTROL FOR STRESS PERIOD    2   TIME STEP 1323
 
 SOLVING FOR HEAD 

 NO OUTPUT CONTROL FOR STRESS PERIOD    2   TIME STEP 1324
 
 SOLVING FOR HEAD 

 NO OUTPUT CONTROL FOR STRESS PERIOD    2   TIME STEP 1325
 
 SOLVING FOR HEAD 

 NO OUTPUT CONTROL FOR STRESS PERIOD    2   TIME STEP 1326
 
 SOLVING FOR HEAD 

 NO OUTPUT CONTROL FOR STRESS PERIOD    2   TIME STEP 1327
 
 SOLVING FOR HEAD 

 NO OUTPUT CONTROL FOR STRESS PERIOD    2   TIME STEP 1328
 
 SOLVING FOR HEAD 

 NO OUTPUT CONTROL FOR STRESS PERIOD    2   TIME STEP 1329
 
 SOLVING FOR HEAD 

 NO OUTPUT CONTROL FOR STRESS PERIOD    2   TIME STEP 1330
 
 SOLVING FOR HEAD 

 NO OUTPUT CONTROL FOR STRESS PERIOD    2   TIME STEP 1331
 
 SOLVING FOR HEAD 

 NO OUTPUT CONTROL FOR STRESS PERIOD    2   TIME STEP 1332
 
 SOLVING FOR HEAD 

 NO OUTPUT CONTROL FOR STRESS PERIOD    2   TIME STEP 1333
 
 SOLVING FOR HEAD 

 NO OUTPUT CONTROL FOR STRESS PERIOD    2   TIME STEP 1334
 
 SOLVING FOR HEAD 

 NO OUTPUT CONTROL FOR STRESS PERIOD    2   TIME STEP 1335
 
 SOLVING FOR HEAD 

 NO OUTPUT CONTROL FOR STRESS PERIOD    2   TIME STEP 1336
 
 SOLVING FOR HEAD 

 NO OUTPUT CONTROL FOR STRESS PERIOD    2   TIME STEP 1337
 
 SOLVING FOR HEAD 

 NO OUTPUT CONTROL FOR STRESS PERIOD    2   TIME STEP 1338
 
 SOLVING FOR HEAD 

 NO OUTPUT CONTROL FOR STRESS PERIOD    2   TIME STEP 1339
 
 SOLVING FOR HEAD 

 NO OUTPUT CONTROL FOR STRESS PERIOD    2   TIME STEP 1340
 
 SOLVING FOR HEAD 

 NO OUTPUT CONTROL FOR STRESS PERIOD    2   TIME STEP 1341
 
 SOLVING FOR HEAD 

 NO OUTPUT CONTROL FOR STRESS PERIOD    2   TIME STEP 1342
 
 SOLVING FOR HEAD 

 NO OUTPUT CONTROL FOR STRESS PERIOD    2   TIME STEP 1343
 
 SOLVING FOR HEAD 

 NO OUTPUT CONTROL FOR STRESS PERIOD    2   TIME STEP 1344
 
 SOLVING FOR HEAD 

 NO OUTPUT CONTROL FOR STRESS PERIOD    2   TIME STEP 1345
 
 SOLVING FOR HEAD 

 NO OUTPUT CONTROL FOR STRESS PERIOD    2   TIME STEP 1346
 
 SOLVING FOR HEAD 

 NO OUTPUT CONTROL FOR STRESS PERIOD    2   TIME STEP 1347
 
 SOLVING FOR HEAD 

 NO OUTPUT CONTROL FOR STRESS PERIOD    2   TIME STEP 1348
 
 SOLVING FOR HEAD 

 NO OUTPUT CONTROL FOR STRESS PERIOD    2   TIME STEP 1349
 
 SOLVING FOR HEAD 

 NO OUTPUT CONTROL FOR STRESS PERIOD    2   TIME STEP 1350
 
 SOLVING FOR HEAD 

 NO OUTPUT CONTROL FOR STRESS PERIOD    2   TIME STEP 1351
 
 SOLVING FOR HEAD 

 NO OUTPUT CONTROL FOR STRESS PERIOD    2   TIME STEP 1352
 
 SOLVING FOR HEAD 

 NO OUTPUT CONTROL FOR STRESS PERIOD    2   TIME STEP 1353
 
 SOLVING FOR HEAD 

 NO OUTPUT CONTROL FOR STRESS PERIOD    2   TIME STEP 1354
 
 SOLVING FOR HEAD 

 NO OUTPUT CONTROL FOR STRESS PERIOD    2   TIME STEP 1355
 
 SOLVING FOR HEAD 

 NO OUTPUT CONTROL FOR STRESS PERIOD    2   TIME STEP 1356
 
 SOLVING FOR HEAD 

 NO OUTPUT CONTROL FOR STRESS PERIOD    2   TIME STEP 1357
 
 SOLVING FOR HEAD 

 NO OUTPUT CONTROL FOR STRESS PERIOD    2   TIME STEP 1358
 
 SOLVING FOR HEAD 

 NO OUTPUT CONTROL FOR STRESS PERIOD    2   TIME STEP 1359
 
 SOLVING FOR HEAD 

 NO OUTPUT CONTROL FOR STRESS PERIOD    2   TIME STEP 1360
 
 SOLVING FOR HEAD 

 NO OUTPUT CONTROL FOR STRESS PERIOD    2   TIME STEP 1361
 
 SOLVING FOR HEAD 

 NO OUTPUT CONTROL FOR STRESS PERIOD    2   TIME STEP 1362
 
 SOLVING FOR HEAD 

 NO OUTPUT CONTROL FOR STRESS PERIOD    2   TIME STEP 1363
 
 SOLVING FOR HEAD 

 NO OUTPUT CONTROL FOR STRESS PERIOD    2   TIME STEP 1364
 
 SOLVING FOR HEAD 

 NO OUTPUT CONTROL FOR STRESS PERIOD    2   TIME STEP 1365
 
 SOLVING FOR HEAD 

 NO OUTPUT CONTROL FOR STRESS PERIOD    2   TIME STEP 1366
 
 SOLVING FOR HEAD 

 NO OUTPUT CONTROL FOR STRESS PERIOD    2   TIME STEP 1367
 
 SOLVING FOR HEAD 

 NO OUTPUT CONTROL FOR STRESS PERIOD    2   TIME STEP 1368
 
 SOLVING FOR HEAD 

 NO OUTPUT CONTROL FOR STRESS PERIOD    2   TIME STEP 1369
 
 SOLVING FOR HEAD 

 NO OUTPUT CONTROL FOR STRESS PERIOD    2   TIME STEP 1370
 
 SOLVING FOR HEAD 

 NO OUTPUT CONTROL FOR STRESS PERIOD    2   TIME STEP 1371
 
 SOLVING FOR HEAD 

 NO OUTPUT CONTROL FOR STRESS PERIOD    2   TIME STEP 1372
 
 SOLVING FOR HEAD 

 NO OUTPUT CONTROL FOR STRESS PERIOD    2   TIME STEP 1373
 
 SOLVING FOR HEAD 

 NO OUTPUT CONTROL FOR STRESS PERIOD    2   TIME STEP 1374
 
 SOLVING FOR HEAD 

 NO OUTPUT CONTROL FOR STRESS PERIOD    2   TIME STEP 1375
 
 SOLVING FOR HEAD 

 NO OUTPUT CONTROL FOR STRESS PERIOD    2   TIME STEP 1376
 
 SOLVING FOR HEAD 

 NO OUTPUT CONTROL FOR STRESS PERIOD    2   TIME STEP 1377
 
 SOLVING FOR HEAD 

 NO OUTPUT CONTROL FOR STRESS PERIOD    2   TIME STEP 1378
 
 SOLVING FOR HEAD 

 NO OUTPUT CONTROL FOR STRESS PERIOD    2   TIME STEP 1379
 
 SOLVING FOR HEAD 

 NO OUTPUT CONTROL FOR STRESS PERIOD    2   TIME STEP 1380
 
 SOLVING FOR HEAD 

 NO OUTPUT CONTROL FOR STRESS PERIOD    2   TIME STEP 1381
 
 SOLVING FOR HEAD 

 NO OUTPUT CONTROL FOR STRESS PERIOD    2   TIME STEP 1382
 
 SOLVING FOR HEAD 

 NO OUTPUT CONTROL FOR STRESS PERIOD    2   TIME STEP 1383
 
 SOLVING FOR HEAD 

 NO OUTPUT CONTROL FOR STRESS PERIOD    2   TIME STEP 1384
 
 SOLVING FOR HEAD 

 NO OUTPUT CONTROL FOR STRESS PERIOD    2   TIME STEP 1385
 
 SOLVING FOR HEAD 

 NO OUTPUT CONTROL FOR STRESS PERIOD    2   TIME STEP 1386
 
 SOLVING FOR HEAD 

 NO OUTPUT CONTROL FOR STRESS PERIOD    2   TIME STEP 1387
 
 SOLVING FOR HEAD 

 NO OUTPUT CONTROL FOR STRESS PERIOD    2   TIME STEP 1388
 
 SOLVING FOR HEAD 

 NO OUTPUT CONTROL FOR STRESS PERIOD    2   TIME STEP 1389
 
 SOLVING FOR HEAD 

 NO OUTPUT CONTROL FOR STRESS PERIOD    2   TIME STEP 1390
 
 SOLVING FOR HEAD 

 NO OUTPUT CONTROL FOR STRESS PERIOD    2   TIME STEP 1391
 
 SOLVING FOR HEAD 

 NO OUTPUT CONTROL FOR STRESS PERIOD    2   TIME STEP 1392
 
 SOLVING FOR HEAD 

 NO OUTPUT CONTROL FOR STRESS PERIOD    2   TIME STEP 1393
 
 SOLVING FOR HEAD 

 NO OUTPUT CONTROL FOR STRESS PERIOD    2   TIME STEP 1394
 
 SOLVING FOR HEAD 

 NO OUTPUT CONTROL FOR STRESS PERIOD    2   TIME STEP 1395
 
 SOLVING FOR HEAD 

 NO OUTPUT CONTROL FOR STRESS PERIOD    2   TIME STEP 1396
 
 SOLVING FOR HEAD 

 NO OUTPUT CONTROL FOR STRESS PERIOD    2   TIME STEP 1397
 
 SOLVING FOR HEAD 

 NO OUTPUT CONTROL FOR STRESS PERIOD    2   TIME STEP 1398
 
 SOLVING FOR HEAD 

 NO OUTPUT CONTROL FOR STRESS PERIOD    2   TIME STEP 1399
 
 SOLVING FOR HEAD 

 NO OUTPUT CONTROL FOR STRESS PERIOD    2   TIME STEP 1400
 
 SOLVING FOR HEAD 

 NO OUTPUT CONTROL FOR STRESS PERIOD    2   TIME STEP 1401
 
 SOLVING FOR HEAD 

 NO OUTPUT CONTROL FOR STRESS PERIOD    2   TIME STEP 1402
 
 SOLVING FOR HEAD 

 NO OUTPUT CONTROL FOR STRESS PERIOD    2   TIME STEP 1403
 
 SOLVING FOR HEAD 

 NO OUTPUT CONTROL FOR STRESS PERIOD    2   TIME STEP 1404
 
 SOLVING FOR HEAD 

 NO OUTPUT CONTROL FOR STRESS PERIOD    2   TIME STEP 1405
 
 SOLVING FOR HEAD 

 NO OUTPUT CONTROL FOR STRESS PERIOD    2   TIME STEP 1406
 
 SOLVING FOR HEAD 

 NO OUTPUT CONTROL FOR STRESS PERIOD    2   TIME STEP 1407
 
 SOLVING FOR HEAD 

 NO OUTPUT CONTROL FOR STRESS PERIOD    2   TIME STEP 1408
 
 SOLVING FOR HEAD 

 NO OUTPUT CONTROL FOR STRESS PERIOD    2   TIME STEP 1409
 
 SOLVING FOR HEAD 

 NO OUTPUT CONTROL FOR STRESS PERIOD    2   TIME STEP 1410
 
 SOLVING FOR HEAD 

 NO OUTPUT CONTROL FOR STRESS PERIOD    2   TIME STEP 1411
 
 SOLVING FOR HEAD 

 NO OUTPUT CONTROL FOR STRESS PERIOD    2   TIME STEP 1412
 
 SOLVING FOR HEAD 

 NO OUTPUT CONTROL FOR STRESS PERIOD    2   TIME STEP 1413
 
 SOLVING FOR HEAD 

 NO OUTPUT CONTROL FOR STRESS PERIOD    2   TIME STEP 1414
 
 SOLVING FOR HEAD 

 NO OUTPUT CONTROL FOR STRESS PERIOD    2   TIME STEP 1415
 
 SOLVING FOR HEAD 

 NO OUTPUT CONTROL FOR STRESS PERIOD    2   TIME STEP 1416
 
 SOLVING FOR HEAD 

 NO OUTPUT CONTROL FOR STRESS PERIOD    2   TIME STEP 1417
 
 SOLVING FOR HEAD 

 NO OUTPUT CONTROL FOR STRESS PERIOD    2   TIME STEP 1418
 
 SOLVING FOR HEAD 

 NO OUTPUT CONTROL FOR STRESS PERIOD    2   TIME STEP 1419
 
 SOLVING FOR HEAD 

 NO OUTPUT CONTROL FOR STRESS PERIOD    2   TIME STEP 1420
 
 SOLVING FOR HEAD 

 NO OUTPUT CONTROL FOR STRESS PERIOD    2   TIME STEP 1421
 
 SOLVING FOR HEAD 

 NO OUTPUT CONTROL FOR STRESS PERIOD    2   TIME STEP 1422
 
 SOLVING FOR HEAD 

 NO OUTPUT CONTROL FOR STRESS PERIOD    2   TIME STEP 1423
 
 SOLVING FOR HEAD 

 NO OUTPUT CONTROL FOR STRESS PERIOD    2   TIME STEP 1424
 
 SOLVING FOR HEAD 

 NO OUTPUT CONTROL FOR STRESS PERIOD    2   TIME STEP 1425
 
 SOLVING FOR HEAD 

 NO OUTPUT CONTROL FOR STRESS PERIOD    2   TIME STEP 1426
 
 SOLVING FOR HEAD 

 NO OUTPUT CONTROL FOR STRESS PERIOD    2   TIME STEP 1427
 
 SOLVING FOR HEAD 

 NO OUTPUT CONTROL FOR STRESS PERIOD    2   TIME STEP 1428
 
 SOLVING FOR HEAD 

 NO OUTPUT CONTROL FOR STRESS PERIOD    2   TIME STEP 1429
 
 SOLVING FOR HEAD 

 NO OUTPUT CONTROL FOR STRESS PERIOD    2   TIME STEP 1430
 
 SOLVING FOR HEAD 

 NO OUTPUT CONTROL FOR STRESS PERIOD    2   TIME STEP 1431
 
 SOLVING FOR HEAD 

 NO OUTPUT CONTROL FOR STRESS PERIOD    2   TIME STEP 1432
 
 SOLVING FOR HEAD 

 NO OUTPUT CONTROL FOR STRESS PERIOD    2   TIME STEP 1433
 
 SOLVING FOR HEAD 

 NO OUTPUT CONTROL FOR STRESS PERIOD    2   TIME STEP 1434
 
 SOLVING FOR HEAD 

 NO OUTPUT CONTROL FOR STRESS PERIOD    2   TIME STEP 1435
 
 SOLVING FOR HEAD 

 NO OUTPUT CONTROL FOR STRESS PERIOD    2   TIME STEP 1436
 
 SOLVING FOR HEAD 

 NO OUTPUT CONTROL FOR STRESS PERIOD    2   TIME STEP 1437
 
 SOLVING FOR HEAD 

 NO OUTPUT CONTROL FOR STRESS PERIOD    2   TIME STEP 1438
 
 SOLVING FOR HEAD 

 NO OUTPUT CONTROL FOR STRESS PERIOD    2   TIME STEP 1439
 
 SOLVING FOR HEAD 

 NO OUTPUT CONTROL FOR STRESS PERIOD    2   TIME STEP 1440
 
 SOLVING FOR HEAD 

 NO OUTPUT CONTROL FOR STRESS PERIOD    2   TIME STEP 1441
 
 SOLVING FOR HEAD 

 NO OUTPUT CONTROL FOR STRESS PERIOD    2   TIME STEP 1442
 
 SOLVING FOR HEAD 

 NO OUTPUT CONTROL FOR STRESS PERIOD    2   TIME STEP 1443
 
 SOLVING FOR HEAD 

 NO OUTPUT CONTROL FOR STRESS PERIOD    2   TIME STEP 1444
 
 SOLVING FOR HEAD 

 NO OUTPUT CONTROL FOR STRESS PERIOD    2   TIME STEP 1445
 
 SOLVING FOR HEAD 

 NO OUTPUT CONTROL FOR STRESS PERIOD    2   TIME STEP 1446
 
 SOLVING FOR HEAD 

 NO OUTPUT CONTROL FOR STRESS PERIOD    2   TIME STEP 1447
 
 SOLVING FOR HEAD 

 NO OUTPUT CONTROL FOR STRESS PERIOD    2   TIME STEP 1448
 
 SOLVING FOR HEAD 

 NO OUTPUT CONTROL FOR STRESS PERIOD    2   TIME STEP 1449
 
 SOLVING FOR HEAD 

 NO OUTPUT CONTROL FOR STRESS PERIOD    2   TIME STEP 1450
 
 SOLVING FOR HEAD 

 NO OUTPUT CONTROL FOR STRESS PERIOD    2   TIME STEP 1451
 
 SOLVING FOR HEAD 

 NO OUTPUT CONTROL FOR STRESS PERIOD    2   TIME STEP 1452
 
 SOLVING FOR HEAD 

 NO OUTPUT CONTROL FOR STRESS PERIOD    2   TIME STEP 1453
 
 SOLVING FOR HEAD 

 NO OUTPUT CONTROL FOR STRESS PERIOD    2   TIME STEP 1454
 
 SOLVING FOR HEAD 

 NO OUTPUT CONTROL FOR STRESS PERIOD    2   TIME STEP 1455
 
 SOLVING FOR HEAD 

 NO OUTPUT CONTROL FOR STRESS PERIOD    2   TIME STEP 1456
 
 SOLVING FOR HEAD 

 NO OUTPUT CONTROL FOR STRESS PERIOD    2   TIME STEP 1457
 
 SOLVING FOR HEAD 

 NO OUTPUT CONTROL FOR STRESS PERIOD    2   TIME STEP 1458
 
 SOLVING FOR HEAD 

 NO OUTPUT CONTROL FOR STRESS PERIOD    2   TIME STEP 1459
 
 SOLVING FOR HEAD 

 NO OUTPUT CONTROL FOR STRESS PERIOD    2   TIME STEP 1460
 
 SOLVING FOR HEAD 

 NO OUTPUT CONTROL FOR STRESS PERIOD    2   TIME STEP 1461
 
 SOLVING FOR HEAD 

 NO OUTPUT CONTROL FOR STRESS PERIOD    2   TIME STEP 1462
 
 SOLVING FOR HEAD 

 NO OUTPUT CONTROL FOR STRESS PERIOD    2   TIME STEP 1463
 
 SOLVING FOR HEAD 

 NO OUTPUT CONTROL FOR STRESS PERIOD    2   TIME STEP 1464
 
 SOLVING FOR HEAD 

 NO OUTPUT CONTROL FOR STRESS PERIOD    2   TIME STEP 1465
 
 SOLVING FOR HEAD 

 NO OUTPUT CONTROL FOR STRESS PERIOD    2   TIME STEP 1466
 
 SOLVING FOR HEAD 

 NO OUTPUT CONTROL FOR STRESS PERIOD    2   TIME STEP 1467
 
 SOLVING FOR HEAD 

 NO OUTPUT CONTROL FOR STRESS PERIOD    2   TIME STEP 1468
 
 SOLVING FOR HEAD 

 NO OUTPUT CONTROL FOR STRESS PERIOD    2   TIME STEP 1469
 
 SOLVING FOR HEAD 

 NO OUTPUT CONTROL FOR STRESS PERIOD    2   TIME STEP 1470
 
 SOLVING FOR HEAD 

 NO OUTPUT CONTROL FOR STRESS PERIOD    2   TIME STEP 1471
 
 SOLVING FOR HEAD 

 NO OUTPUT CONTROL FOR STRESS PERIOD    2   TIME STEP 1472
 
 SOLVING FOR HEAD 

 NO OUTPUT CONTROL FOR STRESS PERIOD    2   TIME STEP 1473
 
 SOLVING FOR HEAD 

 NO OUTPUT CONTROL FOR STRESS PERIOD    2   TIME STEP 1474
 
 SOLVING FOR HEAD 

 NO OUTPUT CONTROL FOR STRESS PERIOD    2   TIME STEP 1475
 
 SOLVING FOR HEAD 

 NO OUTPUT CONTROL FOR STRESS PERIOD    2   TIME STEP 1476
 
 SOLVING FOR HEAD 

 NO OUTPUT CONTROL FOR STRESS PERIOD    2   TIME STEP 1477
 
 SOLVING FOR HEAD 

 NO OUTPUT CONTROL FOR STRESS PERIOD    2   TIME STEP 1478
 
 SOLVING FOR HEAD 

 NO OUTPUT CONTROL FOR STRESS PERIOD    2   TIME STEP 1479
 
 SOLVING FOR HEAD 

 NO OUTPUT CONTROL FOR STRESS PERIOD    2   TIME STEP 1480
 
 SOLVING FOR HEAD 

 NO OUTPUT CONTROL FOR STRESS PERIOD    2   TIME STEP 1481
 
 SOLVING FOR HEAD 

 NO OUTPUT CONTROL FOR STRESS PERIOD    2   TIME STEP 1482
 
 SOLVING FOR HEAD 

 NO OUTPUT CONTROL FOR STRESS PERIOD    2   TIME STEP 1483
 
 SOLVING FOR HEAD 

 NO OUTPUT CONTROL FOR STRESS PERIOD    2   TIME STEP 1484
 
 SOLVING FOR HEAD 

 NO OUTPUT CONTROL FOR STRESS PERIOD    2   TIME STEP 1485
 
 SOLVING FOR HEAD 

 NO OUTPUT CONTROL FOR STRESS PERIOD    2   TIME STEP 1486
 
 SOLVING FOR HEAD 

 NO OUTPUT CONTROL FOR STRESS PERIOD    2   TIME STEP 1487
 
 SOLVING FOR HEAD 

 NO OUTPUT CONTROL FOR STRESS PERIOD    2   TIME STEP 1488
 
 SOLVING FOR HEAD 

 NO OUTPUT CONTROL FOR STRESS PERIOD    2   TIME STEP 1489
 
 SOLVING FOR HEAD 

 NO OUTPUT CONTROL FOR STRESS PERIOD    2   TIME STEP 1490
 
 SOLVING FOR HEAD 

 NO OUTPUT CONTROL FOR STRESS PERIOD    2   TIME STEP 1491
 
 SOLVING FOR HEAD 

 NO OUTPUT CONTROL FOR STRESS PERIOD    2   TIME STEP 1492
 
 SOLVING FOR HEAD 

 NO OUTPUT CONTROL FOR STRESS PERIOD    2   TIME STEP 1493
 
 SOLVING FOR HEAD 

 NO OUTPUT CONTROL FOR STRESS PERIOD    2   TIME STEP 1494
 
 SOLVING FOR HEAD 

 NO OUTPUT CONTROL FOR STRESS PERIOD    2   TIME STEP 1495
 
 SOLVING FOR HEAD 

 NO OUTPUT CONTROL FOR STRESS PERIOD    2   TIME STEP 1496
 
 SOLVING FOR HEAD 

 NO OUTPUT CONTROL FOR STRESS PERIOD    2   TIME STEP 1497
 
 SOLVING FOR HEAD 

 NO OUTPUT CONTROL FOR STRESS PERIOD    2   TIME STEP 1498
 
 SOLVING FOR HEAD 

 NO OUTPUT CONTROL FOR STRESS PERIOD    2   TIME STEP 1499
 
 SOLVING FOR HEAD 

 NO OUTPUT CONTROL FOR STRESS PERIOD    2   TIME STEP 1500
 
 SOLVING FOR HEAD 

 NO OUTPUT CONTROL FOR STRESS PERIOD    2   TIME STEP 1501
 
 SOLVING FOR HEAD 

 NO OUTPUT CONTROL FOR STRESS PERIOD    2   TIME STEP 1502
 
 SOLVING FOR HEAD 

 NO OUTPUT CONTROL FOR STRESS PERIOD    2   TIME STEP 1503
 
 SOLVING FOR HEAD 

 NO OUTPUT CONTROL FOR STRESS PERIOD    2   TIME STEP 1504
 
 SOLVING FOR HEAD 

 NO OUTPUT CONTROL FOR STRESS PERIOD    2   TIME STEP 1505
 
 SOLVING FOR HEAD 

 NO OUTPUT CONTROL FOR STRESS PERIOD    2   TIME STEP 1506
 
 SOLVING FOR HEAD 

 NO OUTPUT CONTROL FOR STRESS PERIOD    2   TIME STEP 1507
 
 SOLVING FOR HEAD 

 NO OUTPUT CONTROL FOR STRESS PERIOD    2   TIME STEP 1508
 
 SOLVING FOR HEAD 

 NO OUTPUT CONTROL FOR STRESS PERIOD    2   TIME STEP 1509
 
 SOLVING FOR HEAD 

 NO OUTPUT CONTROL FOR STRESS PERIOD    2   TIME STEP 1510
 
 SOLVING FOR HEAD 

 NO OUTPUT CONTROL FOR STRESS PERIOD    2   TIME STEP 1511
 
 SOLVING FOR HEAD 

 NO OUTPUT CONTROL FOR STRESS PERIOD    2   TIME STEP 1512
 
 SOLVING FOR HEAD 

 NO OUTPUT CONTROL FOR STRESS PERIOD    2   TIME STEP 1513
 
 SOLVING FOR HEAD 

 NO OUTPUT CONTROL FOR STRESS PERIOD    2   TIME STEP 1514
 
 SOLVING FOR HEAD 

 NO OUTPUT CONTROL FOR STRESS PERIOD    2   TIME STEP 1515
 
 SOLVING FOR HEAD 

 NO OUTPUT CONTROL FOR STRESS PERIOD    2   TIME STEP 1516
 
 SOLVING FOR HEAD 

 NO OUTPUT CONTROL FOR STRESS PERIOD    2   TIME STEP 1517
 
 SOLVING FOR HEAD 

 NO OUTPUT CONTROL FOR STRESS PERIOD    2   TIME STEP 1518
 
 SOLVING FOR HEAD 

 NO OUTPUT CONTROL FOR STRESS PERIOD    2   TIME STEP 1519
 
 SOLVING FOR HEAD 

 NO OUTPUT CONTROL FOR STRESS PERIOD    2   TIME STEP 1520
 
 SOLVING FOR HEAD 

 NO OUTPUT CONTROL FOR STRESS PERIOD    2   TIME STEP 1521
 
 SOLVING FOR HEAD 

 NO OUTPUT CONTROL FOR STRESS PERIOD    2   TIME STEP 1522
 
 SOLVING FOR HEAD 

 NO OUTPUT CONTROL FOR STRESS PERIOD    2   TIME STEP 1523
 
 SOLVING FOR HEAD 

 NO OUTPUT CONTROL FOR STRESS PERIOD    2   TIME STEP 1524
 
 SOLVING FOR HEAD 

 NO OUTPUT CONTROL FOR STRESS PERIOD    2   TIME STEP 1525
 
 SOLVING FOR HEAD 

 NO OUTPUT CONTROL FOR STRESS PERIOD    2   TIME STEP 1526
 
 SOLVING FOR HEAD 

 NO OUTPUT CONTROL FOR STRESS PERIOD    2   TIME STEP 1527
 
 SOLVING FOR HEAD 

 NO OUTPUT CONTROL FOR STRESS PERIOD    2   TIME STEP 1528
 
 SOLVING FOR HEAD 

 NO OUTPUT CONTROL FOR STRESS PERIOD    2   TIME STEP 1529
 
 SOLVING FOR HEAD 

 NO OUTPUT CONTROL FOR STRESS PERIOD    2   TIME STEP 1530
 
 SOLVING FOR HEAD 

 NO OUTPUT CONTROL FOR STRESS PERIOD    2   TIME STEP 1531
 
 SOLVING FOR HEAD 

 NO OUTPUT CONTROL FOR STRESS PERIOD    2   TIME STEP 1532
 
 SOLVING FOR HEAD 

 NO OUTPUT CONTROL FOR STRESS PERIOD    2   TIME STEP 1533
 
 SOLVING FOR HEAD 

 NO OUTPUT CONTROL FOR STRESS PERIOD    2   TIME STEP 1534
 
 SOLVING FOR HEAD 

 NO OUTPUT CONTROL FOR STRESS PERIOD    2   TIME STEP 1535
 
 SOLVING FOR HEAD 

 NO OUTPUT CONTROL FOR STRESS PERIOD    2   TIME STEP 1536
 
 SOLVING FOR HEAD 

 NO OUTPUT CONTROL FOR STRESS PERIOD    2   TIME STEP 1537
 
 SOLVING FOR HEAD 

 NO OUTPUT CONTROL FOR STRESS PERIOD    2   TIME STEP 1538
 
 SOLVING FOR HEAD 

 NO OUTPUT CONTROL FOR STRESS PERIOD    2   TIME STEP 1539
 
 SOLVING FOR HEAD 

 NO OUTPUT CONTROL FOR STRESS PERIOD    2   TIME STEP 1540
 
 SOLVING FOR HEAD 

 NO OUTPUT CONTROL FOR STRESS PERIOD    2   TIME STEP 1541
 
 SOLVING FOR HEAD 

 NO OUTPUT CONTROL FOR STRESS PERIOD    2   TIME STEP 1542
 
 SOLVING FOR HEAD 

 NO OUTPUT CONTROL FOR STRESS PERIOD    2   TIME STEP 1543
 
 SOLVING FOR HEAD 

 NO OUTPUT CONTROL FOR STRESS PERIOD    2   TIME STEP 1544
 
 SOLVING FOR HEAD 

 NO OUTPUT CONTROL FOR STRESS PERIOD    2   TIME STEP 1545
 
 SOLVING FOR HEAD 

 NO OUTPUT CONTROL FOR STRESS PERIOD    2   TIME STEP 1546
 
 SOLVING FOR HEAD 

 NO OUTPUT CONTROL FOR STRESS PERIOD    2   TIME STEP 1547
 
 SOLVING FOR HEAD 

 NO OUTPUT CONTROL FOR STRESS PERIOD    2   TIME STEP 1548
 
 SOLVING FOR HEAD 

 NO OUTPUT CONTROL FOR STRESS PERIOD    2   TIME STEP 1549
 
 SOLVING FOR HEAD 

 NO OUTPUT CONTROL FOR STRESS PERIOD    2   TIME STEP 1550
 
 SOLVING FOR HEAD 

 NO OUTPUT CONTROL FOR STRESS PERIOD    2   TIME STEP 1551
 
 SOLVING FOR HEAD 

 NO OUTPUT CONTROL FOR STRESS PERIOD    2   TIME STEP 1552
 
 SOLVING FOR HEAD 

 NO OUTPUT CONTROL FOR STRESS PERIOD    2   TIME STEP 1553
 
 SOLVING FOR HEAD 

 NO OUTPUT CONTROL FOR STRESS PERIOD    2   TIME STEP 1554
 
 SOLVING FOR HEAD 

 NO OUTPUT CONTROL FOR STRESS PERIOD    2   TIME STEP 1555
 
 SOLVING FOR HEAD 

 NO OUTPUT CONTROL FOR STRESS PERIOD    2   TIME STEP 1556
 
 SOLVING FOR HEAD 

 NO OUTPUT CONTROL FOR STRESS PERIOD    2   TIME STEP 1557
 
 SOLVING FOR HEAD 

 NO OUTPUT CONTROL FOR STRESS PERIOD    2   TIME STEP 1558
 
 SOLVING FOR HEAD 

 NO OUTPUT CONTROL FOR STRESS PERIOD    2   TIME STEP 1559
 
 SOLVING FOR HEAD 

 NO OUTPUT CONTROL FOR STRESS PERIOD    2   TIME STEP 1560
 
 SOLVING FOR HEAD 

 NO OUTPUT CONTROL FOR STRESS PERIOD    2   TIME STEP 1561
 
 SOLVING FOR HEAD 

 NO OUTPUT CONTROL FOR STRESS PERIOD    2   TIME STEP 1562
 
 SOLVING FOR HEAD 

 NO OUTPUT CONTROL FOR STRESS PERIOD    2   TIME STEP 1563
 
 SOLVING FOR HEAD 

 NO OUTPUT CONTROL FOR STRESS PERIOD    2   TIME STEP 1564
 
 SOLVING FOR HEAD 

 NO OUTPUT CONTROL FOR STRESS PERIOD    2   TIME STEP 1565
 
 SOLVING FOR HEAD 

 NO OUTPUT CONTROL FOR STRESS PERIOD    2   TIME STEP 1566
 
 SOLVING FOR HEAD 

 NO OUTPUT CONTROL FOR STRESS PERIOD    2   TIME STEP 1567
 
 SOLVING FOR HEAD 

 NO OUTPUT CONTROL FOR STRESS PERIOD    2   TIME STEP 1568
 
 SOLVING FOR HEAD 

 NO OUTPUT CONTROL FOR STRESS PERIOD    2   TIME STEP 1569
 
 SOLVING FOR HEAD 

 NO OUTPUT CONTROL FOR STRESS PERIOD    2   TIME STEP 1570
 
 SOLVING FOR HEAD 

 NO OUTPUT CONTROL FOR STRESS PERIOD    2   TIME STEP 1571
 
 SOLVING FOR HEAD 

 NO OUTPUT CONTROL FOR STRESS PERIOD    2   TIME STEP 1572
 
 SOLVING FOR HEAD 

 NO OUTPUT CONTROL FOR STRESS PERIOD    2   TIME STEP 1573
 
 SOLVING FOR HEAD 

 NO OUTPUT CONTROL FOR STRESS PERIOD    2   TIME STEP 1574
 
 SOLVING FOR HEAD 

 NO OUTPUT CONTROL FOR STRESS PERIOD    2   TIME STEP 1575
 
 SOLVING FOR HEAD 

 NO OUTPUT CONTROL FOR STRESS PERIOD    2   TIME STEP 1576
 
 SOLVING FOR HEAD 

 NO OUTPUT CONTROL FOR STRESS PERIOD    2   TIME STEP 1577
 
 SOLVING FOR HEAD 

 NO OUTPUT CONTROL FOR STRESS PERIOD    2   TIME STEP 1578
 
 SOLVING FOR HEAD 

 NO OUTPUT CONTROL FOR STRESS PERIOD    2   TIME STEP 1579
 
 SOLVING FOR HEAD 

 NO OUTPUT CONTROL FOR STRESS PERIOD    2   TIME STEP 1580
 
 SOLVING FOR HEAD 

 NO OUTPUT CONTROL FOR STRESS PERIOD    2   TIME STEP 1581
 
 SOLVING FOR HEAD 

 NO OUTPUT CONTROL FOR STRESS PERIOD    2   TIME STEP 1582
 
 SOLVING FOR HEAD 

 NO OUTPUT CONTROL FOR STRESS PERIOD    2   TIME STEP 1583
 
 SOLVING FOR HEAD 

 NO OUTPUT CONTROL FOR STRESS PERIOD    2   TIME STEP 1584
 
 SOLVING FOR HEAD 

 NO OUTPUT CONTROL FOR STRESS PERIOD    2   TIME STEP 1585
 
 SOLVING FOR HEAD 

 NO OUTPUT CONTROL FOR STRESS PERIOD    2   TIME STEP 1586
 
 SOLVING FOR HEAD 

 NO OUTPUT CONTROL FOR STRESS PERIOD    2   TIME STEP 1587
 
 SOLVING FOR HEAD 

 NO OUTPUT CONTROL FOR STRESS PERIOD    2   TIME STEP 1588
 
 SOLVING FOR HEAD 

 NO OUTPUT CONTROL FOR STRESS PERIOD    2   TIME STEP 1589
 
 SOLVING FOR HEAD 

 NO OUTPUT CONTROL FOR STRESS PERIOD    2   TIME STEP 1590
 
 SOLVING FOR HEAD 

 NO OUTPUT CONTROL FOR STRESS PERIOD    2   TIME STEP 1591
 
 SOLVING FOR HEAD 

 NO OUTPUT CONTROL FOR STRESS PERIOD    2   TIME STEP 1592
 
 SOLVING FOR HEAD 

 NO OUTPUT CONTROL FOR STRESS PERIOD    2   TIME STEP 1593
 
 SOLVING FOR HEAD 

 NO OUTPUT CONTROL FOR STRESS PERIOD    2   TIME STEP 1594
 
 SOLVING FOR HEAD 

 NO OUTPUT CONTROL FOR STRESS PERIOD    2   TIME STEP 1595
 
 SOLVING FOR HEAD 

 NO OUTPUT CONTROL FOR STRESS PERIOD    2   TIME STEP 1596
 
 SOLVING FOR HEAD 

 NO OUTPUT CONTROL FOR STRESS PERIOD    2   TIME STEP 1597
 
 SOLVING FOR HEAD 

 NO OUTPUT CONTROL FOR STRESS PERIOD    2   TIME STEP 1598
 
 SOLVING FOR HEAD 

 NO OUTPUT CONTROL FOR STRESS PERIOD    2   TIME STEP 1599
 
 SOLVING FOR HEAD 

 NO OUTPUT CONTROL FOR STRESS PERIOD    2   TIME STEP 1600
 
 SOLVING FOR HEAD 

 NO OUTPUT CONTROL FOR STRESS PERIOD    2   TIME STEP 1601
 
 SOLVING FOR HEAD 

 NO OUTPUT CONTROL FOR STRESS PERIOD    2   TIME STEP 1602
 
 SOLVING FOR HEAD 

 NO OUTPUT CONTROL FOR STRESS PERIOD    2   TIME STEP 1603
 
 SOLVING FOR HEAD 

 NO OUTPUT CONTROL FOR STRESS PERIOD    2   TIME STEP 1604
 
 SOLVING FOR HEAD 

 NO OUTPUT CONTROL FOR STRESS PERIOD    2   TIME STEP 1605
 
 SOLVING FOR HEAD 

 NO OUTPUT CONTROL FOR STRESS PERIOD    2   TIME STEP 1606
 
 SOLVING FOR HEAD 

 NO OUTPUT CONTROL FOR STRESS PERIOD    2   TIME STEP 1607
 
 SOLVING FOR HEAD 

 NO OUTPUT CONTROL FOR STRESS PERIOD    2   TIME STEP 1608
 
 SOLVING FOR HEAD 

 NO OUTPUT CONTROL FOR STRESS PERIOD    2   TIME STEP 1609
 
 SOLVING FOR HEAD 

 NO OUTPUT CONTROL FOR STRESS PERIOD    2   TIME STEP 1610
 
 SOLVING FOR HEAD 

 NO OUTPUT CONTROL FOR STRESS PERIOD    2   TIME STEP 1611
 
 SOLVING FOR HEAD 

 NO OUTPUT CONTROL FOR STRESS PERIOD    2   TIME STEP 1612
 
 SOLVING FOR HEAD 

 NO OUTPUT CONTROL FOR STRESS PERIOD    2   TIME STEP 1613
 
 SOLVING FOR HEAD 

 NO OUTPUT CONTROL FOR STRESS PERIOD    2   TIME STEP 1614
 
 SOLVING FOR HEAD 

 NO OUTPUT CONTROL FOR STRESS PERIOD    2   TIME STEP 1615
 
 SOLVING FOR HEAD 

 NO OUTPUT CONTROL FOR STRESS PERIOD    2   TIME STEP 1616
 
 SOLVING FOR HEAD 

 NO OUTPUT CONTROL FOR STRESS PERIOD    2   TIME STEP 1617
 
 SOLVING FOR HEAD 

 NO OUTPUT CONTROL FOR STRESS PERIOD    2   TIME STEP 1618
 
 SOLVING FOR HEAD 

 NO OUTPUT CONTROL FOR STRESS PERIOD    2   TIME STEP 1619
 
 SOLVING FOR HEAD 

 NO OUTPUT CONTROL FOR STRESS PERIOD    2   TIME STEP 1620
 
 SOLVING FOR HEAD 

 NO OUTPUT CONTROL FOR STRESS PERIOD    2   TIME STEP 1621
 
 SOLVING FOR HEAD 

 NO OUTPUT CONTROL FOR STRESS PERIOD    2   TIME STEP 1622
 
 SOLVING FOR HEAD 

 NO OUTPUT CONTROL FOR STRESS PERIOD    2   TIME STEP 1623
 
 SOLVING FOR HEAD 

 NO OUTPUT CONTROL FOR STRESS PERIOD    2   TIME STEP 1624
 
 SOLVING FOR HEAD 

 NO OUTPUT CONTROL FOR STRESS PERIOD    2   TIME STEP 1625
 
 SOLVING FOR HEAD 

 NO OUTPUT CONTROL FOR STRESS PERIOD    2   TIME STEP 1626
 
 SOLVING FOR HEAD 

 NO OUTPUT CONTROL FOR STRESS PERIOD    2   TIME STEP 1627
 
 SOLVING FOR HEAD 

 NO OUTPUT CONTROL FOR STRESS PERIOD    2   TIME STEP 1628
 
 SOLVING FOR HEAD 

 NO OUTPUT CONTROL FOR STRESS PERIOD    2   TIME STEP 1629
 
 SOLVING FOR HEAD 

 NO OUTPUT CONTROL FOR STRESS PERIOD    2   TIME STEP 1630
 
 SOLVING FOR HEAD 

 NO OUTPUT CONTROL FOR STRESS PERIOD    2   TIME STEP 1631
 
 SOLVING FOR HEAD 

 NO OUTPUT CONTROL FOR STRESS PERIOD    2   TIME STEP 1632
 
 SOLVING FOR HEAD 

 NO OUTPUT CONTROL FOR STRESS PERIOD    2   TIME STEP 1633
 
 SOLVING FOR HEAD 

 NO OUTPUT CONTROL FOR STRESS PERIOD    2   TIME STEP 1634
 
 SOLVING FOR HEAD 

 NO OUTPUT CONTROL FOR STRESS PERIOD    2   TIME STEP 1635
 
 SOLVING FOR HEAD 

 NO OUTPUT CONTROL FOR STRESS PERIOD    2   TIME STEP 1636
 
 SOLVING FOR HEAD 

 NO OUTPUT CONTROL FOR STRESS PERIOD    2   TIME STEP 1637
 
 SOLVING FOR HEAD 

 NO OUTPUT CONTROL FOR STRESS PERIOD    2   TIME STEP 1638
 
 SOLVING FOR HEAD 

 NO OUTPUT CONTROL FOR STRESS PERIOD    2   TIME STEP 1639
 
 SOLVING FOR HEAD 

 NO OUTPUT CONTROL FOR STRESS PERIOD    2   TIME STEP 1640
 
 SOLVING FOR HEAD 

 NO OUTPUT CONTROL FOR STRESS PERIOD    2   TIME STEP 1641
 
 SOLVING FOR HEAD 

 NO OUTPUT CONTROL FOR STRESS PERIOD    2   TIME STEP 1642
 
 SOLVING FOR HEAD 

 NO OUTPUT CONTROL FOR STRESS PERIOD    2   TIME STEP 1643
 
 SOLVING FOR HEAD 

 NO OUTPUT CONTROL FOR STRESS PERIOD    2   TIME STEP 1644
 
 SOLVING FOR HEAD 

 NO OUTPUT CONTROL FOR STRESS PERIOD    2   TIME STEP 1645
 
 SOLVING FOR HEAD 

 NO OUTPUT CONTROL FOR STRESS PERIOD    2   TIME STEP 1646
 
 SOLVING FOR HEAD 

 NO OUTPUT CONTROL FOR STRESS PERIOD    2   TIME STEP 1647
 
 SOLVING FOR HEAD 

 NO OUTPUT CONTROL FOR STRESS PERIOD    2   TIME STEP 1648
 
 SOLVING FOR HEAD 

 NO OUTPUT CONTROL FOR STRESS PERIOD    2   TIME STEP 1649
 
 SOLVING FOR HEAD 

 NO OUTPUT CONTROL FOR STRESS PERIOD    2   TIME STEP 1650
 
 SOLVING FOR HEAD 

 NO OUTPUT CONTROL FOR STRESS PERIOD    2   TIME STEP 1651
 
 SOLVING FOR HEAD 

 NO OUTPUT CONTROL FOR STRESS PERIOD    2   TIME STEP 1652
 
 SOLVING FOR HEAD 

 NO OUTPUT CONTROL FOR STRESS PERIOD    2   TIME STEP 1653
 
 SOLVING FOR HEAD 

 NO OUTPUT CONTROL FOR STRESS PERIOD    2   TIME STEP 1654
 
 SOLVING FOR HEAD 

 NO OUTPUT CONTROL FOR STRESS PERIOD    2   TIME STEP 1655
 
 SOLVING FOR HEAD 

 NO OUTPUT CONTROL FOR STRESS PERIOD    2   TIME STEP 1656
 
 SOLVING FOR HEAD 

 NO OUTPUT CONTROL FOR STRESS PERIOD    2   TIME STEP 1657
 
 SOLVING FOR HEAD 

 NO OUTPUT CONTROL FOR STRESS PERIOD    2   TIME STEP 1658
 
 SOLVING FOR HEAD 

 NO OUTPUT CONTROL FOR STRESS PERIOD    2   TIME STEP 1659
 
 SOLVING FOR HEAD 

 NO OUTPUT CONTROL FOR STRESS PERIOD    2   TIME STEP 1660
 
 SOLVING FOR HEAD 

 NO OUTPUT CONTROL FOR STRESS PERIOD    2   TIME STEP 1661
 
 SOLVING FOR HEAD 

 NO OUTPUT CONTROL FOR STRESS PERIOD    2   TIME STEP 1662
 
 SOLVING FOR HEAD 

 NO OUTPUT CONTROL FOR STRESS PERIOD    2   TIME STEP 1663
 
 SOLVING FOR HEAD 

 NO OUTPUT CONTROL FOR STRESS PERIOD    2   TIME STEP 1664
 
 SOLVING FOR HEAD 

 NO OUTPUT CONTROL FOR STRESS PERIOD    2   TIME STEP 1665
 
 SOLVING FOR HEAD 

 NO OUTPUT CONTROL FOR STRESS PERIOD    2   TIME STEP 1666
 
 SOLVING FOR HEAD 

 NO OUTPUT CONTROL FOR STRESS PERIOD    2   TIME STEP 1667
 
 SOLVING FOR HEAD 

 NO OUTPUT CONTROL FOR STRESS PERIOD    2   TIME STEP 1668
 
 SOLVING FOR HEAD 

 NO OUTPUT CONTROL FOR STRESS PERIOD    2   TIME STEP 1669
 
 SOLVING FOR HEAD 

 NO OUTPUT CONTROL FOR STRESS PERIOD    2   TIME STEP 1670
 
 SOLVING FOR HEAD 

 NO OUTPUT CONTROL FOR STRESS PERIOD    2   TIME STEP 1671
 
 SOLVING FOR HEAD 

 NO OUTPUT CONTROL FOR STRESS PERIOD    2   TIME STEP 1672
 
 SOLVING FOR HEAD 

 NO OUTPUT CONTROL FOR STRESS PERIOD    2   TIME STEP 1673
 
 SOLVING FOR HEAD 

 NO OUTPUT CONTROL FOR STRESS PERIOD    2   TIME STEP 1674
 
 SOLVING FOR HEAD 

 NO OUTPUT CONTROL FOR STRESS PERIOD    2   TIME STEP 1675
 
 SOLVING FOR HEAD 

 NO OUTPUT CONTROL FOR STRESS PERIOD    2   TIME STEP 1676
 
 SOLVING FOR HEAD 

 NO OUTPUT CONTROL FOR STRESS PERIOD    2   TIME STEP 1677
 
 SOLVING FOR HEAD 

 NO OUTPUT CONTROL FOR STRESS PERIOD    2   TIME STEP 1678
 
 SOLVING FOR HEAD 

 NO OUTPUT CONTROL FOR STRESS PERIOD    2   TIME STEP 1679
 
 SOLVING FOR HEAD 

 NO OUTPUT CONTROL FOR STRESS PERIOD    2   TIME STEP 1680
 
 SOLVING FOR HEAD 

 NO OUTPUT CONTROL FOR STRESS PERIOD    2   TIME STEP 1681
 
 SOLVING FOR HEAD 

 NO OUTPUT CONTROL FOR STRESS PERIOD    2   TIME STEP 1682
 
 SOLVING FOR HEAD 

 NO OUTPUT CONTROL FOR STRESS PERIOD    2   TIME STEP 1683
 
 SOLVING FOR HEAD 

 NO OUTPUT CONTROL FOR STRESS PERIOD    2   TIME STEP 1684
 
 SOLVING FOR HEAD 

 NO OUTPUT CONTROL FOR STRESS PERIOD    2   TIME STEP 1685
 
 SOLVING FOR HEAD 

 NO OUTPUT CONTROL FOR STRESS PERIOD    2   TIME STEP 1686
 
 SOLVING FOR HEAD 

 NO OUTPUT CONTROL FOR STRESS PERIOD    2   TIME STEP 1687
 
 SOLVING FOR HEAD 

 NO OUTPUT CONTROL FOR STRESS PERIOD    2   TIME STEP 1688
 
 SOLVING FOR HEAD 

 NO OUTPUT CONTROL FOR STRESS PERIOD    2   TIME STEP 1689
 
 SOLVING FOR HEAD 

 NO OUTPUT CONTROL FOR STRESS PERIOD    2   TIME STEP 1690
 
 SOLVING FOR HEAD 

 NO OUTPUT CONTROL FOR STRESS PERIOD    2   TIME STEP 1691
 
 SOLVING FOR HEAD 

 NO OUTPUT CONTROL FOR STRESS PERIOD    2   TIME STEP 1692
 
 SOLVING FOR HEAD 

 NO OUTPUT CONTROL FOR STRESS PERIOD    2   TIME STEP 1693
 
 SOLVING FOR HEAD 

 NO OUTPUT CONTROL FOR STRESS PERIOD    2   TIME STEP 1694
 
 SOLVING FOR HEAD 

 NO OUTPUT CONTROL FOR STRESS PERIOD    2   TIME STEP 1695
 
 SOLVING FOR HEAD 

 NO OUTPUT CONTROL FOR STRESS PERIOD    2   TIME STEP 1696
 
 SOLVING FOR HEAD 

 NO OUTPUT CONTROL FOR STRESS PERIOD    2   TIME STEP 1697
 
 SOLVING FOR HEAD 

 NO OUTPUT CONTROL FOR STRESS PERIOD    2   TIME STEP 1698
 
 SOLVING FOR HEAD 

 NO OUTPUT CONTROL FOR STRESS PERIOD    2   TIME STEP 1699
 
 SOLVING FOR HEAD 

 NO OUTPUT CONTROL FOR STRESS PERIOD    2   TIME STEP 1700
 
 SOLVING FOR HEAD 

 NO OUTPUT CONTROL FOR STRESS PERIOD    2   TIME STEP 1701
 
 SOLVING FOR HEAD 

 NO OUTPUT CONTROL FOR STRESS PERIOD    2   TIME STEP 1702
 
 SOLVING FOR HEAD 

 NO OUTPUT CONTROL FOR STRESS PERIOD    2   TIME STEP 1703
 
 SOLVING FOR HEAD 

 NO OUTPUT CONTROL FOR STRESS PERIOD    2   TIME STEP 1704
 
 SOLVING FOR HEAD 

 NO OUTPUT CONTROL FOR STRESS PERIOD    2   TIME STEP 1705
 
 SOLVING FOR HEAD 

 NO OUTPUT CONTROL FOR STRESS PERIOD    2   TIME STEP 1706
 
 SOLVING FOR HEAD 

 NO OUTPUT CONTROL FOR STRESS PERIOD    2   TIME STEP 1707
 
 SOLVING FOR HEAD 

 NO OUTPUT CONTROL FOR STRESS PERIOD    2   TIME STEP 1708
 
 SOLVING FOR HEAD 

 NO OUTPUT CONTROL FOR STRESS PERIOD    2   TIME STEP 1709
 
 SOLVING FOR HEAD 

 NO OUTPUT CONTROL FOR STRESS PERIOD    2   TIME STEP 1710
 
 SOLVING FOR HEAD 

 NO OUTPUT CONTROL FOR STRESS PERIOD    2   TIME STEP 1711
 
 SOLVING FOR HEAD 

 NO OUTPUT CONTROL FOR STRESS PERIOD    2   TIME STEP 1712
 
 SOLVING FOR HEAD 

 NO OUTPUT CONTROL FOR STRESS PERIOD    2   TIME STEP 1713
 
 SOLVING FOR HEAD 

 NO OUTPUT CONTROL FOR STRESS PERIOD    2   TIME STEP 1714
 
 SOLVING FOR HEAD 

 NO OUTPUT CONTROL FOR STRESS PERIOD    2   TIME STEP 1715
 
 SOLVING FOR HEAD 

 NO OUTPUT CONTROL FOR STRESS PERIOD    2   TIME STEP 1716
 
 SOLVING FOR HEAD 

 NO OUTPUT CONTROL FOR STRESS PERIOD    2   TIME STEP 1717
 
 SOLVING FOR HEAD 

 NO OUTPUT CONTROL FOR STRESS PERIOD    2   TIME STEP 1718
 
 SOLVING FOR HEAD 

 NO OUTPUT CONTROL FOR STRESS PERIOD    2   TIME STEP 1719
 
 SOLVING FOR HEAD 

 NO OUTPUT CONTROL FOR STRESS PERIOD    2   TIME STEP 1720
 
 SOLVING FOR HEAD 

 NO OUTPUT CONTROL FOR STRESS PERIOD    2   TIME STEP 1721
 
 SOLVING FOR HEAD 

 NO OUTPUT CONTROL FOR STRESS PERIOD    2   TIME STEP 1722
 
 SOLVING FOR HEAD 

 NO OUTPUT CONTROL FOR STRESS PERIOD    2   TIME STEP 1723
 
 SOLVING FOR HEAD 

 NO OUTPUT CONTROL FOR STRESS PERIOD    2   TIME STEP 1724
 
 SOLVING FOR HEAD 

 NO OUTPUT CONTROL FOR STRESS PERIOD    2   TIME STEP 1725
 
 SOLVING FOR HEAD 

 NO OUTPUT CONTROL FOR STRESS PERIOD    2   TIME STEP 1726
 
 SOLVING FOR HEAD 

 NO OUTPUT CONTROL FOR STRESS PERIOD    2   TIME STEP 1727
 
 SOLVING FOR HEAD 

 NO OUTPUT CONTROL FOR STRESS PERIOD    2   TIME STEP 1728
 
 SOLVING FOR HEAD 

 NO OUTPUT CONTROL FOR STRESS PERIOD    2   TIME STEP 1729
 
 SOLVING FOR HEAD 

 NO OUTPUT CONTROL FOR STRESS PERIOD    2   TIME STEP 1730
 
 SOLVING FOR HEAD 

 NO OUTPUT CONTROL FOR STRESS PERIOD    2   TIME STEP 1731
 
 SOLVING FOR HEAD 

 NO OUTPUT CONTROL FOR STRESS PERIOD    2   TIME STEP 1732
 
 SOLVING FOR HEAD 

 NO OUTPUT CONTROL FOR STRESS PERIOD    2   TIME STEP 1733
 
 SOLVING FOR HEAD 

 NO OUTPUT CONTROL FOR STRESS PERIOD    2   TIME STEP 1734
 
 SOLVING FOR HEAD 

 NO OUTPUT CONTROL FOR STRESS PERIOD    2   TIME STEP 1735
 
 SOLVING FOR HEAD 

 NO OUTPUT CONTROL FOR STRESS PERIOD    2   TIME STEP 1736
 
 SOLVING FOR HEAD 

 NO OUTPUT CONTROL FOR STRESS PERIOD    2   TIME STEP 1737
 
 SOLVING FOR HEAD 

 NO OUTPUT CONTROL FOR STRESS PERIOD    2   TIME STEP 1738
 
 SOLVING FOR HEAD 

 NO OUTPUT CONTROL FOR STRESS PERIOD    2   TIME STEP 1739
 
 SOLVING FOR HEAD 

 NO OUTPUT CONTROL FOR STRESS PERIOD    2   TIME STEP 1740
 
 SOLVING FOR HEAD 

 NO OUTPUT CONTROL FOR STRESS PERIOD    2   TIME STEP 1741
 
 SOLVING FOR HEAD 

 NO OUTPUT CONTROL FOR STRESS PERIOD    2   TIME STEP 1742
 
 SOLVING FOR HEAD 

 NO OUTPUT CONTROL FOR STRESS PERIOD    2   TIME STEP 1743
 
 SOLVING FOR HEAD 

 NO OUTPUT CONTROL FOR STRESS PERIOD    2   TIME STEP 1744
 
 SOLVING FOR HEAD 

 NO OUTPUT CONTROL FOR STRESS PERIOD    2   TIME STEP 1745
 
 SOLVING FOR HEAD 

 NO OUTPUT CONTROL FOR STRESS PERIOD    2   TIME STEP 1746
 
 SOLVING FOR HEAD 

 NO OUTPUT CONTROL FOR STRESS PERIOD    2   TIME STEP 1747
 
 SOLVING FOR HEAD 

 NO OUTPUT CONTROL FOR STRESS PERIOD    2   TIME STEP 1748
 
 SOLVING FOR HEAD 

 NO OUTPUT CONTROL FOR STRESS PERIOD    2   TIME STEP 1749
 
 SOLVING FOR HEAD 

 NO OUTPUT CONTROL FOR STRESS PERIOD    2   TIME STEP 1750
 
 SOLVING FOR HEAD 

 NO OUTPUT CONTROL FOR STRESS PERIOD    2   TIME STEP 1751
 
 SOLVING FOR HEAD 

 NO OUTPUT CONTROL FOR STRESS PERIOD    2   TIME STEP 1752
 
 SOLVING FOR HEAD 

 NO OUTPUT CONTROL FOR STRESS PERIOD    2   TIME STEP 1753
 
 SOLVING FOR HEAD 

 NO OUTPUT CONTROL FOR STRESS PERIOD    2   TIME STEP 1754
 
 SOLVING FOR HEAD 

 NO OUTPUT CONTROL FOR STRESS PERIOD    2   TIME STEP 1755
 
 SOLVING FOR HEAD 

 NO OUTPUT CONTROL FOR STRESS PERIOD    2   TIME STEP 1756
 
 SOLVING FOR HEAD 

 NO OUTPUT CONTROL FOR STRESS PERIOD    2   TIME STEP 1757
 
 SOLVING FOR HEAD 

 NO OUTPUT CONTROL FOR STRESS PERIOD    2   TIME STEP 1758
 
 SOLVING FOR HEAD 

 NO OUTPUT CONTROL FOR STRESS PERIOD    2   TIME STEP 1759
 
 SOLVING FOR HEAD 

 NO OUTPUT CONTROL FOR STRESS PERIOD    2   TIME STEP 1760
 
 SOLVING FOR HEAD 

 NO OUTPUT CONTROL FOR STRESS PERIOD    2   TIME STEP 1761
 
 SOLVING FOR HEAD 

 NO OUTPUT CONTROL FOR STRESS PERIOD    2   TIME STEP 1762
 
 SOLVING FOR HEAD 

 NO OUTPUT CONTROL FOR STRESS PERIOD    2   TIME STEP 1763
 
 SOLVING FOR HEAD 

 NO OUTPUT CONTROL FOR STRESS PERIOD    2   TIME STEP 1764
 
 SOLVING FOR HEAD 

 NO OUTPUT CONTROL FOR STRESS PERIOD    2   TIME STEP 1765
 
 SOLVING FOR HEAD 

 NO OUTPUT CONTROL FOR STRESS PERIOD    2   TIME STEP 1766
 
 SOLVING FOR HEAD 

 NO OUTPUT CONTROL FOR STRESS PERIOD    2   TIME STEP 1767
 
 SOLVING FOR HEAD 

 NO OUTPUT CONTROL FOR STRESS PERIOD    2   TIME STEP 1768
 
 SOLVING FOR HEAD 

 NO OUTPUT CONTROL FOR STRESS PERIOD    2   TIME STEP 1769
 
 SOLVING FOR HEAD 

 NO OUTPUT CONTROL FOR STRESS PERIOD    2   TIME STEP 1770
 
 SOLVING FOR HEAD 

 NO OUTPUT CONTROL FOR STRESS PERIOD    2   TIME STEP 1771
 
 SOLVING FOR HEAD 

 NO OUTPUT CONTROL FOR STRESS PERIOD    2   TIME STEP 1772
 
 SOLVING FOR HEAD 

 NO OUTPUT CONTROL FOR STRESS PERIOD    2   TIME STEP 1773
 
 SOLVING FOR HEAD 

 NO OUTPUT CONTROL FOR STRESS PERIOD    2   TIME STEP 1774
 
 SOLVING FOR HEAD 

 NO OUTPUT CONTROL FOR STRESS PERIOD    2   TIME STEP 1775
 
 SOLVING FOR HEAD 

 NO OUTPUT CONTROL FOR STRESS PERIOD    2   TIME STEP 1776
 
 SOLVING FOR HEAD 

 NO OUTPUT CONTROL FOR STRESS PERIOD    2   TIME STEP 1777
 
 SOLVING FOR HEAD 

 NO OUTPUT CONTROL FOR STRESS PERIOD    2   TIME STEP 1778
 
 SOLVING FOR HEAD 

 NO OUTPUT CONTROL FOR STRESS PERIOD    2   TIME STEP 1779
 
 SOLVING FOR HEAD 

 NO OUTPUT CONTROL FOR STRESS PERIOD    2   TIME STEP 1780
 
 SOLVING FOR HEAD 

 NO OUTPUT CONTROL FOR STRESS PERIOD    2   TIME STEP 1781
 
 SOLVING FOR HEAD 

 NO OUTPUT CONTROL FOR STRESS PERIOD    2   TIME STEP 1782
 
 SOLVING FOR HEAD 

 NO OUTPUT CONTROL FOR STRESS PERIOD    2   TIME STEP 1783
 
 SOLVING FOR HEAD 

 NO OUTPUT CONTROL FOR STRESS PERIOD    2   TIME STEP 1784
 
 SOLVING FOR HEAD 

 NO OUTPUT CONTROL FOR STRESS PERIOD    2   TIME STEP 1785
 
 SOLVING FOR HEAD 

 NO OUTPUT CONTROL FOR STRESS PERIOD    2   TIME STEP 1786
 
 SOLVING FOR HEAD 

 NO OUTPUT CONTROL FOR STRESS PERIOD    2   TIME STEP 1787
 
 SOLVING FOR HEAD 

 NO OUTPUT CONTROL FOR STRESS PERIOD    2   TIME STEP 1788
 
 SOLVING FOR HEAD 

 NO OUTPUT CONTROL FOR STRESS PERIOD    2   TIME STEP 1789
 
 SOLVING FOR HEAD 

 NO OUTPUT CONTROL FOR STRESS PERIOD    2   TIME STEP 1790
 
 SOLVING FOR HEAD 

 NO OUTPUT CONTROL FOR STRESS PERIOD    2   TIME STEP 1791
 
 SOLVING FOR HEAD 

 NO OUTPUT CONTROL FOR STRESS PERIOD    2   TIME STEP 1792
 
 SOLVING FOR HEAD 

 NO OUTPUT CONTROL FOR STRESS PERIOD    2   TIME STEP 1793
 
 SOLVING FOR HEAD 

 NO OUTPUT CONTROL FOR STRESS PERIOD    2   TIME STEP 1794
 
 SOLVING FOR HEAD 

 NO OUTPUT CONTROL FOR STRESS PERIOD    2   TIME STEP 1795
 
 SOLVING FOR HEAD 

 NO OUTPUT CONTROL FOR STRESS PERIOD    2   TIME STEP 1796
 
 SOLVING FOR HEAD 

 NO OUTPUT CONTROL FOR STRESS PERIOD    2   TIME STEP 1797
 
 SOLVING FOR HEAD 

 NO OUTPUT CONTROL FOR STRESS PERIOD    2   TIME STEP 1798
 
 SOLVING FOR HEAD 

 NO OUTPUT CONTROL FOR STRESS PERIOD    2   TIME STEP 1799
 
 SOLVING FOR HEAD 

 NO OUTPUT CONTROL FOR STRESS PERIOD    2   TIME STEP 1800
 
 SOLVING FOR HEAD 

 NO OUTPUT CONTROL FOR STRESS PERIOD    2   TIME STEP 1801
 
 SOLVING FOR HEAD 

 NO OUTPUT CONTROL FOR STRESS PERIOD    2   TIME STEP 1802
 
 SOLVING FOR HEAD 

 NO OUTPUT CONTROL FOR STRESS PERIOD    2   TIME STEP 1803
 
 SOLVING FOR HEAD 

 NO OUTPUT CONTROL FOR STRESS PERIOD    2   TIME STEP 1804
 
 SOLVING FOR HEAD 

 NO OUTPUT CONTROL FOR STRESS PERIOD    2   TIME STEP 1805
 
 SOLVING FOR HEAD 

 NO OUTPUT CONTROL FOR STRESS PERIOD    2   TIME STEP 1806
 
 SOLVING FOR HEAD 

 NO OUTPUT CONTROL FOR STRESS PERIOD    2   TIME STEP 1807
 
 SOLVING FOR HEAD 

 NO OUTPUT CONTROL FOR STRESS PERIOD    2   TIME STEP 1808
 
 SOLVING FOR HEAD 

 NO OUTPUT CONTROL FOR STRESS PERIOD    2   TIME STEP 1809
 
 SOLVING FOR HEAD 

 NO OUTPUT CONTROL FOR STRESS PERIOD    2   TIME STEP 1810
 
 SOLVING FOR HEAD 

 NO OUTPUT CONTROL FOR STRESS PERIOD    2   TIME STEP 1811
 
 SOLVING FOR HEAD 

 NO OUTPUT CONTROL FOR STRESS PERIOD    2   TIME STEP 1812
 
 SOLVING FOR HEAD 

 NO OUTPUT CONTROL FOR STRESS PERIOD    2   TIME STEP 1813
 
 SOLVING FOR HEAD 

 NO OUTPUT CONTROL FOR STRESS PERIOD    2   TIME STEP 1814
 
 SOLVING FOR HEAD 

 NO OUTPUT CONTROL FOR STRESS PERIOD    2   TIME STEP 1815
 
 SOLVING FOR HEAD 

 NO OUTPUT CONTROL FOR STRESS PERIOD    2   TIME STEP 1816
 
 SOLVING FOR HEAD 

 NO OUTPUT CONTROL FOR STRESS PERIOD    2   TIME STEP 1817
 
 SOLVING FOR HEAD 

 NO OUTPUT CONTROL FOR STRESS PERIOD    2   TIME STEP 1818
 
 SOLVING FOR HEAD 

 NO OUTPUT CONTROL FOR STRESS PERIOD    2   TIME STEP 1819
 
 SOLVING FOR HEAD 

 NO OUTPUT CONTROL FOR STRESS PERIOD    2   TIME STEP 1820
 
 SOLVING FOR HEAD 

 NO OUTPUT CONTROL FOR STRESS PERIOD    2   TIME STEP 1821
 
 SOLVING FOR HEAD 

 NO OUTPUT CONTROL FOR STRESS PERIOD    2   TIME STEP 1822
 
 SOLVING FOR HEAD 

 NO OUTPUT CONTROL FOR STRESS PERIOD    2   TIME STEP 1823
 
 SOLVING FOR HEAD 

 NO OUTPUT CONTROL FOR STRESS PERIOD    2   TIME STEP 1824
 
 SOLVING FOR HEAD 

 NO OUTPUT CONTROL FOR STRESS PERIOD    2   TIME STEP 1825
 
 SOLVING FOR HEAD 

 OUTPUT CONTROL FOR STRESS PERIOD    2   TIME STEP 1826
    PRINT BUDGET



 STREAM LISTING     PERIOD      2   STEP     1826

 LAYER ROW COL. STREAM  RCH.   FLOW INTO    STREAM     FLOW OUT OF   OVRLND.    DIRECT     STREAM      STREAM      STREAM     STREAM  STREAMBED   FLOW TO   CHNG. UNSAT. 
                SEG.NO.  NO.   STRM. RCH.    LOSS       STRM. RCH.   RUNOFF     PRECIP       ET         HEAD        DEPTH      WIDTH  CONDCTNC.   WAT. TAB.

   1   39   15     1     1    0.0000E+00 -3.7950E+03   3.7950E+03  0.000E+00  0.000E+00  0.000E+00  2.35652E+03  1.963E-02  3.000E+00  1.530E+03  0.000E+00  0.000E+00
   1   39   16     1     2    3.7950E+03  3.5470E+02   3.4403E+03  0.000E+00  0.000E+00  0.000E+00  2.35253E+03  2.548E-02  3.000E+00  6.750E+02  0.000E+00  0.000E+00
   1   39   17     1     3    3.4403E+03 -4.2866E+02   3.8689E+03  0.000E+00  0.000E+00  0.000E+00  2.34552E+03  2.372E-02  3.000E+00  9.000E+02  0.000E+00  0.000E+00
   1   38   17     1     4    3.8689E+03 -6.6331E+02   4.5322E+03  0.000E+00  0.000E+00  0.000E+00  2.34253E+03  2.597E-02  3.000E+00  4.500E+02  0.000E+00  0.000E+00
   1   38   18     1     5    4.5322E+03 -7.1783E+02   5.2501E+03  0.000E+00  0.000E+00  0.000E+00  2.33653E+03  3.083E-02  3.000E+00  1.530E+03  0.000E+00  0.000E+00
   1   38   19     1     6    5.2501E+03  3.5847E+02   4.8916E+03  0.000E+00  0.000E+00  0.000E+00  2.33253E+03  3.106E-02  3.000E+00  6.750E+02  0.000E+00  0.000E+00
   1   38   20     1     7    4.8916E+03 -1.9833E+03   6.8749E+03  0.000E+00  0.000E+00  0.000E+00  2.32453E+03  3.090E-02  3.000E+00  1.350E+03  0.000E+00  0.000E+00
   1   38   21     1     8    6.8749E+03 -1.9766E+03   8.8515E+03  0.000E+00  0.000E+00  0.000E+00  2.31654E+03  3.584E-02  3.000E+00  1.350E+03  0.000E+00  0.000E+00
   1   38   22     1     9    8.8515E+03 -2.2385E+03   1.1090E+04  0.000E+00  0.000E+00  0.000E+00  2.30654E+03  3.694E-02  3.000E+00  1.530E+03  0.000E+00  0.000E+00
   1   38   23     1    10    1.1090E+04 -8.3478E+03   1.9438E+04  0.000E+00  0.000E+00  0.000E+00  2.28854E+03  4.389E-02  3.000E+00  1.530E+03  0.000E+00  0.000E+00
   1   37   24     1    11    1.9438E+04 -6.9008E+02   2.0128E+04  0.000E+00  0.000E+00  0.000E+00  2.26855E+03  4.897E-02  3.000E+00  1.530E+03  0.000E+00  0.000E+00
   1   37   25     1    12    2.0128E+04 -6.9600E+03   2.7088E+04  0.000E+00  0.000E+00  0.000E+00  2.24756E+03  5.554E-02  3.000E+00  1.080E+03  0.000E+00  0.000E+00
   1   36   25     1    13    2.7088E+04 -3.3470E+03   3.0435E+04  0.000E+00  0.000E+00  0.000E+00  2.24056E+03  6.226E-02  3.000E+00  4.500E+02  0.000E+00  0.000E+00
   1   36   26     1    14    3.0435E+04 -5.8665E+03   3.6301E+04  0.000E+00  0.000E+00  0.000E+00  2.22657E+03  6.806E-02  3.000E+00  1.080E+03  0.000E+00  0.000E+00
   1   35   26     1    15    3.6301E+04 -1.9885E+03   3.8290E+04  0.000E+00  0.000E+00  0.000E+00  2.21958E+03  8.101E-02  3.000E+00  4.500E+02  0.000E+00  0.000E+00
   1   35   27     1    16    3.8290E+04 -5.6409E+02   3.8854E+04  0.000E+00  0.000E+00  0.000E+00  2.21058E+03  8.215E-02  3.000E+00  1.350E+03  0.000E+00  0.000E+00
   1   36   28     1    17    3.8854E+04 -6.3485E+02   3.9489E+04  0.000E+00  0.000E+00  0.000E+00  2.19658E+03  8.506E-02  3.000E+00  1.530E+03  0.000E+00  0.000E+00
   1   36   29     1    18    3.9489E+04 -5.5753E+02   4.0046E+04  0.000E+00  0.000E+00  0.000E+00  2.18459E+03  8.702E-02  3.000E+00  1.350E+03  0.000E+00  0.000E+00
   1   36   30     1    19    4.0046E+04 -5.5513E+02   4.0602E+04  0.000E+00  0.000E+00  0.000E+00  2.17259E+03  8.879E-02  3.000E+00  1.350E+03  0.000E+00  0.000E+00
   1   36   31     1    20    4.0602E+04  4.4862E+02   4.0153E+04  0.000E+00  0.000E+00  0.000E+00  2.16159E+03  8.643E-02  3.000E+00  7.650E+02  0.000E+00  0.000E+00
   1   36   32     1    21    4.0153E+04 -1.8817E+02   4.0341E+04  0.000E+00  0.000E+00  0.000E+00  2.15058E+03  8.185E-02  3.000E+00  4.500E+02  0.000E+00  0.000E+00
   1   35   32     1    22    4.0341E+04 -4.7657E+03   4.5107E+04  0.000E+00  0.000E+00  0.000E+00  2.14259E+03  8.735E-02  3.000E+00  1.080E+03  0.000E+00  0.000E+00
   1   35   33     1    23    4.5107E+04 -1.8514E+02   4.5292E+04  0.000E+00  0.000E+00  0.000E+00  2.13559E+03  8.859E-02  3.000E+00  4.500E+02  0.000E+00  0.000E+00
   1   34   33     1    24    4.5292E+04 -3.6799E+03   4.8972E+04  0.000E+00  0.000E+00  0.000E+00  2.12659E+03  9.265E-02  3.000E+00  1.080E+03  0.000E+00  0.000E+00
   1   34   34     1    25    4.8972E+04 -1.7903E+02   4.9151E+04  0.000E+00  0.000E+00  0.000E+00  2.12060E+03  1.022E-01  3.000E+00  4.500E+02  0.000E+00  0.000E+00
   1   33   34     1    26    4.9151E+04 -3.5823E+02   4.9509E+04  0.000E+00  0.000E+00  0.000E+00  2.11560E+03  1.020E-01  3.000E+00  9.000E+02  0.000E+00  0.000E+00
   1   33   35     1    27    4.9509E+04 -4.2759E+02   4.9937E+04  0.000E+00  0.000E+00  0.000E+00  2.10760E+03  1.041E-01  3.000E+00  1.080E+03  0.000E+00  0.000E+00
   1   32   35     1    28    4.9937E+04 -6.2895E+02   5.0566E+04  0.000E+00  0.000E+00  0.000E+00  2.10260E+03  1.023E-01  3.000E+00  4.500E+02  0.000E+00  0.000E+00
   1   32   36     1    29    5.0566E+04 -5.9793E+02   5.1164E+04  0.000E+00  0.000E+00  0.000E+00  2.09361E+03  1.092E-01  3.000E+00  1.530E+03  0.000E+00  0.000E+00
   1   32   37     1    30    5.1164E+04 -5.1242E+02   5.1676E+04  0.000E+00  0.000E+00  0.000E+00  2.08662E+03  1.204E-01  3.000E+00  1.350E+03  0.000E+00  0.000E+00
   1   53   37     2     1    0.0000E+00 -6.6531E+02   6.6531E+02  0.000E+00  0.000E+00  0.000E+00  2.14751E+03  7.175E-03  3.000E+00  1.350E+03  0.000E+00  0.000E+00
   1   52   37     2     2    6.6531E+02  2.7507E+02   3.9024E+02  0.000E+00  0.000E+00  0.000E+00  2.14451E+03  9.389E-03  3.000E+00  5.400E+02  0.000E+00  0.000E+00
   1   52   38     2     3    3.9024E+02 -6.7054E+02   1.0608E+03  0.000E+00  0.000E+00  0.000E+00  2.14251E+03  9.908E-03  3.000E+00  4.500E+02  0.000E+00  0.000E+00
   1   51   38     2     4    1.0608E+03 -7.4063E+02   1.8014E+03  0.000E+00  0.000E+00  0.000E+00  2.13752E+03  1.593E-02  3.000E+00  1.530E+03  0.000E+00  0.000E+00
   1   50   38     2     5    1.8014E+03 -4.2833E+02   2.2297E+03  0.000E+00  0.000E+00  0.000E+00  2.13552E+03  2.408E-02  3.000E+00  9.000E+02  0.000E+00  0.000E+00
   1   50   39     2     6    2.2297E+03 -2.1381E+02   2.4436E+03  0.000E+00  0.000E+00  0.000E+00  2.13452E+03  2.486E-02  3.000E+00  4.500E+02  0.000E+00  0.000E+00
   1   49   39     2     7    2.4436E+03  3.5350E+02   2.0901E+03  0.000E+00  0.000E+00  0.000E+00  2.13252E+03  2.370E-02  3.000E+00  6.750E+02  0.000E+00  0.000E+00
   1   48   39     2     8    2.0901E+03  3.9942E+02   1.6906E+03  0.000E+00  0.000E+00  0.000E+00  2.12952E+03  2.212E-02  3.000E+00  7.650E+02  0.000E+00  0.000E+00
   1   47   39     2     9    1.6906E+03  2.3434E+02   1.4563E+03  0.000E+00  0.000E+00  0.000E+00  2.12752E+03  2.075E-02  3.000E+00  4.500E+02  0.000E+00  0.000E+00
   1   47   40     2    10    1.4563E+03 -6.6547E+02   2.1218E+03  0.000E+00  0.000E+00  0.000E+00  2.12652E+03  2.118E-02  3.000E+00  4.500E+02  0.000E+00  0.000E+00
   1   46   40     2    11    2.1218E+03 -6.4184E+02   2.7636E+03  0.000E+00  0.000E+00  0.000E+00  2.12452E+03  2.456E-02  3.000E+00  1.350E+03  0.000E+00  0.000E+00
   1   45   40     2    12    2.7636E+03 -6.6279E+02   3.4264E+03  0.000E+00  0.000E+00  0.000E+00  2.12253E+03  2.713E-02  3.000E+00  4.500E+02  0.000E+00  0.000E+00
   1   45   39     2    13    3.4264E+03 -1.3196E+03   4.7460E+03  0.000E+00  0.000E+00  0.000E+00  2.12053E+03  3.375E-02  3.000E+00  9.000E+02  0.000E+00  0.000E+00
   1   44   39     2    14    4.7460E+03  4.0863E+02   4.3374E+03  0.000E+00  0.000E+00  0.000E+00  2.11853E+03  3.415E-02  3.000E+00  7.650E+02  0.000E+00  0.000E+00
   1   43   38     2    15    4.3374E+03  4.0511E+02   3.9323E+03  0.000E+00  0.000E+00  0.000E+00  2.11353E+03  2.956E-02  3.000E+00  7.650E+02  0.000E+00  0.000E+00
   1   42   38     2    16    3.9323E+03 -6.3343E+02   4.5657E+03  0.000E+00  0.000E+00  0.000E+00  2.10853E+03  3.079E-02  3.000E+00  1.350E+03  0.000E+00  0.000E+00
   1   41   38     2    17    4.5657E+03 -7.0973E+02   5.2755E+03  0.000E+00  0.000E+00  0.000E+00  2.10454E+03  3.612E-02  3.000E+00  1.530E+03  0.000E+00  0.000E+00
   1   40   38     2    18    5.2755E+03 -2.1038E+02   5.4858E+03  0.000E+00  0.000E+00  0.000E+00  2.10253E+03  3.249E-02  3.000E+00  4.500E+02  0.000E+00  0.000E+00
   1   40   39     2    19    5.4858E+03 -4.9131E+03   1.0399E+04  0.000E+00  0.000E+00  0.000E+00  2.09754E+03  4.104E-02  3.000E+00  9.000E+02  0.000E+00  0.000E+00
   1   39   39     2    20    1.0399E+04  4.2181E+02   9.9771E+03  0.000E+00  0.000E+00  0.000E+00  2.09455E+03  5.139E-02  3.000E+00  7.650E+02  0.000E+00  0.000E+00
   1   38   39     2    21    9.9771E+03 -2.2204E+03   1.2197E+04  0.000E+00  0.000E+00  0.000E+00  2.08855E+03  4.879E-02  3.000E+00  1.530E+03  0.000E+00  0.000E+00
   1   37   40     2    22    1.2197E+04 -6.8723E+02   1.2885E+04  0.000E+00  0.000E+00  0.000E+00  2.08055E+03  5.083E-02  3.000E+00  1.530E+03  0.000E+00  0.000E+00
   1   36   40     2    23    1.2885E+04 -2.1981E+03   1.5083E+04  0.000E+00  0.000E+00  0.000E+00  2.07456E+03  5.763E-02  3.000E+00  9.000E+02  0.000E+00  0.000E+00
   1   36   41     2    24    1.5083E+04 -6.4460E+02   1.5727E+04  0.000E+00  0.000E+00  0.000E+00  2.07257E+03  6.756E-02  3.000E+00  4.500E+02  0.000E+00  0.000E+00
   1   35   41     2    25    1.5727E+04 -6.5263E+02   1.6380E+04  0.000E+00  0.000E+00  0.000E+00  2.06957E+03  7.344E-02  3.000E+00  1.530E+03  0.000E+00  0.000E+00
   1   34   41     2    26    1.6380E+04  3.8512E+02   1.5995E+04  0.000E+00  0.000E+00  0.000E+00  2.06657E+03  7.055E-02  3.000E+00  6.750E+02  0.000E+00  0.000E+00
   1   33   41     2    27    1.5995E+04  3.8292E+02   1.5612E+04  0.000E+00  0.000E+00  0.000E+00  2.06157E+03  6.729E-02  3.000E+00  6.750E+02  0.000E+00  0.000E+00
   1   32   41     2    28    1.5612E+04 -6.6509E+02   1.6277E+04  0.000E+00  0.000E+00  0.000E+00  2.05757E+03  6.530E-02  3.000E+00  1.530E+03  0.000E+00  0.000E+00
   1   31   42     2    29    1.6277E+04 -7.4660E+02   1.7024E+04  0.000E+00  0.000E+00  0.000E+00  2.04956E+03  6.339E-02  3.000E+00  1.710E+03  0.000E+00  0.000E+00
   1   31   33     3     1    0.0000E+00 -3.3536E+03   3.3536E+03  0.000E+00  0.000E+00  0.000E+00  2.11652E+03  1.585E-02  3.000E+00  1.350E+03  0.000E+00  0.000E+00
   1   31   34     3     2    3.3536E+03  3.5182E+02   3.0018E+03  0.000E+00  0.000E+00  0.000E+00  2.11052E+03  2.121E-02  3.000E+00  6.750E+02  0.000E+00  0.000E+00
   1   31   35     3     3    3.0018E+03 -7.3139E+02   3.7332E+03  0.000E+00  0.000E+00  0.000E+00  2.09952E+03  2.196E-02  3.000E+00  1.530E+03  0.000E+00  0.000E+00
   1   31   36     3     4    3.7332E+03 -2.2499E+03   5.9831E+03  0.000E+00  0.000E+00  0.000E+00  2.09253E+03  2.948E-02  3.000E+00  1.530E+03  0.000E+00  0.000E+00
   1   31   37     3     5    5.9831E+03 -6.2888E+02   6.6120E+03  0.000E+00  0.000E+00  0.000E+00  2.08553E+03  3.416E-02  3.000E+00  1.350E+03  0.000E+00  0.000E+00
   1   48   48     4     1    0.0000E+00 -2.0028E+03   2.0028E+03  0.000E+00  0.000E+00  0.000E+00  2.11352E+03  1.647E-02  3.000E+00  1.350E+03  0.000E+00  0.000E+00
   1   47   48     4     2    2.0028E+03 -7.2743E+02   2.7302E+03  0.000E+00  0.000E+00  0.000E+00  2.11152E+03  2.455E-02  3.000E+00  1.530E+03  0.000E+00  0.000E+00
   1   46   48     4     3    2.7302E+03 -6.6347E+02   3.3937E+03  0.000E+00  0.000E+00  0.000E+00  2.10953E+03  2.563E-02  3.000E+00  4.500E+02  0.000E+00  0.000E+00
   1   46   47     4     4    3.3937E+03 -1.3200E+03   4.7137E+03  0.000E+00  0.000E+00  0.000E+00  2.10753E+03  3.328E-02  3.000E+00  9.000E+02  0.000E+00  0.000E+00
   1   45   47     4     5    4.7137E+03  3.6247E+02   4.3512E+03  0.000E+00  0.000E+00  0.000E+00  2.10554E+03  3.699E-02  3.000E+00  6.750E+02  0.000E+00  0.000E+00
   1   44   47     4     6    4.3512E+03  4.0651E+02   3.9447E+03  0.000E+00  0.000E+00  0.000E+00  2.10253E+03  3.139E-02  3.000E+00  7.650E+02  0.000E+00  0.000E+00
   1   43   47     4     7    3.9447E+03 -1.9855E+03   5.9302E+03  0.000E+00  0.000E+00  0.000E+00  2.09753E+03  2.928E-02  3.000E+00  1.350E+03  0.000E+00  0.000E+00
   1   42   47     4     8    5.9302E+03 -3.3285E+03   9.2587E+03  0.000E+00  0.000E+00  0.000E+00  2.08853E+03  3.447E-02  3.000E+00  1.350E+03  0.000E+00  0.000E+00
   1   41   47     4     9    9.2587E+03 -1.3123E+03   1.0571E+04  0.000E+00  0.000E+00  0.000E+00  2.08054E+03  4.185E-02  3.000E+00  9.000E+02  0.000E+00  0.000E+00
   1   41   48     4    10    1.0571E+04 -1.1050E+03   1.1676E+04  0.000E+00  0.000E+00  0.000E+00  2.07754E+03  4.441E-02  3.000E+00  4.500E+02  0.000E+00  0.000E+00
   1   40   48     4    11    1.1676E+04 -6.1064E+02   1.2287E+04  0.000E+00  0.000E+00  0.000E+00  2.07055E+03  4.768E-02  3.000E+00  1.350E+03  0.000E+00  0.000E+00
   1   39   48     4    12    1.2287E+04 -4.6515E+03   1.6938E+04  0.000E+00  0.000E+00  0.000E+00  2.06455E+03  5.447E-02  3.000E+00  1.350E+03  0.000E+00  0.000E+00
   1   38   47     4    13    1.6938E+04  3.7594E+02   1.6562E+04  0.000E+00  0.000E+00  0.000E+00  2.05556E+03  5.695E-02  3.000E+00  6.750E+02  0.000E+00  0.000E+00
   1   37   47     4    14    1.6562E+04 -5.9967E+02   1.7162E+04  0.000E+00  0.000E+00  0.000E+00  2.04756E+03  5.580E-02  3.000E+00  1.350E+03  0.000E+00  0.000E+00
   1   36   48     4    15    1.7162E+04 -6.7525E+02   1.7837E+04  0.000E+00  0.000E+00  0.000E+00  2.03656E+03  5.866E-02  3.000E+00  1.530E+03  0.000E+00  0.000E+00
   1   35   48     4    16    1.7837E+04 -1.9708E+02   1.8034E+04  0.000E+00  0.000E+00  0.000E+00  2.03256E+03  6.205E-02  3.000E+00  4.500E+02  0.000E+00  0.000E+00
   1   35   49     4    17    1.8034E+04 -3.9690E+02   1.8431E+04  0.000E+00  0.000E+00  0.000E+00  2.02756E+03  5.900E-02  3.000E+00  9.000E+02  0.000E+00  0.000E+00
   1   34   49     4    18    1.8431E+04 -1.5491E+03   1.9980E+04  0.000E+00  0.000E+00  0.000E+00  2.02157E+03  6.564E-02  3.000E+00  1.080E+03  0.000E+00  0.000E+00
   1   34   50     4    19    1.9980E+04 -6.4158E+02   2.0622E+04  0.000E+00  0.000E+00  0.000E+00  2.01857E+03  7.427E-02  3.000E+00  4.500E+02  0.000E+00  0.000E+00
   1   33   50     4    20    2.0622E+04  4.9148E+02   2.0130E+04  0.000E+00  0.000E+00  0.000E+00  2.01457E+03  7.483E-02  3.000E+00  8.550E+02  0.000E+00  0.000E+00
   1   55   72     5     1    0.0000E+00 -3.3507E+03   3.3507E+03  0.000E+00  0.000E+00  0.000E+00  2.00152E+03  1.797E-02  3.000E+00  1.350E+03  0.000E+00  0.000E+00
   1   54   72     5     2    3.3507E+03 -6.3763E+02   3.9884E+03  0.000E+00  0.000E+00  0.000E+00  1.99753E+03  2.768E-02  3.000E+00  1.350E+03  0.000E+00  0.000E+00
   1   53   72     5     3    3.9884E+03  3.5442E+02   3.6340E+03  0.000E+00  0.000E+00  0.000E+00  1.99253E+03  2.507E-02  3.000E+00  6.750E+02  0.000E+00  0.000E+00
   1   52   72     5     4    3.6340E+03 -7.2569E+02   4.3596E+03  0.000E+00  0.000E+00  0.000E+00  1.98353E+03  2.569E-02  3.000E+00  1.530E+03  0.000E+00  0.000E+00
   1   51   72     5     5    4.3596E+03  4.0279E+02   3.9569E+03  0.000E+00  0.000E+00  0.000E+00  1.97753E+03  2.652E-02  3.000E+00  7.650E+02  0.000E+00  0.000E+00
   1   50   73     5     6    3.9569E+03 -7.2349E+02   4.6803E+03  0.000E+00  0.000E+00  0.000E+00  1.96853E+03  2.713E-02  3.000E+00  1.530E+03  0.000E+00  0.000E+00
   1   49   73     5     7    4.6803E+03 -7.1889E+02   5.3992E+03  0.000E+00  0.000E+00  0.000E+00  1.96253E+03  3.014E-02  3.000E+00  1.530E+03  0.000E+00  0.000E+00
   1   48   73     5     8    5.3992E+03 -2.1076E+02   5.6100E+03  0.000E+00  0.000E+00  0.000E+00  1.95653E+03  3.164E-02  3.000E+00  4.500E+02  0.000E+00  0.000E+00
   1   48   74     5     9    5.6100E+03 -2.2154E+03   7.8254E+03  0.000E+00  0.000E+00  0.000E+00  1.95454E+03  3.845E-02  3.000E+00  9.000E+02  0.000E+00  0.000E+00
   1   47   74     5    10    7.8254E+03 -7.0017E+02   8.5255E+03  0.000E+00  0.000E+00  0.000E+00  1.94954E+03  4.238E-02  3.000E+00  1.530E+03  0.000E+00  0.000E+00
   1   46   75     5    11    8.5255E+03  4.1752E+02   8.1080E+03  0.000E+00  0.000E+00  0.000E+00  1.94355E+03  4.578E-02  3.000E+00  7.650E+02  0.000E+00  0.000E+00
   1   45   75     5    12    8.1080E+03  1.2294E+02   7.9851E+03  0.000E+00  0.000E+00  0.000E+00  1.94155E+03  4.639E-02  3.000E+00  2.250E+02  0.000E+00  0.000E+00
   1   45   76     5    13    7.9851E+03  2.9371E+02   7.6914E+03  0.000E+00  0.000E+00  0.000E+00  1.93854E+03  4.391E-02  3.000E+00  5.400E+02  0.000E+00  0.000E+00
   1   44   76     5    14    7.6914E+03  1.2291E+02   7.5685E+03  0.000E+00  0.000E+00  0.000E+00  1.93655E+03  4.626E-02  3.000E+00  2.250E+02  0.000E+00  0.000E+00
   1   45   62     6     1    0.0000E+00 -2.0069E+03   2.0069E+03  0.000E+00  0.000E+00  0.000E+00  2.00451E+03  1.340E-02  3.000E+00  1.350E+03  0.000E+00  0.000E+00
   1   44   62     6     2    2.0069E+03 -7.3348E+02   2.7404E+03  0.000E+00  0.000E+00  0.000E+00  1.99952E+03  2.060E-02  3.000E+00  1.530E+03  0.000E+00  0.000E+00
   1   43   62     6     3    2.7404E+03  1.1696E+02   2.6234E+03  0.000E+00  0.000E+00  0.000E+00  1.99552E+03  1.984E-02  3.000E+00  2.250E+02  0.000E+00  0.000E+00
   1   43   63     6     4    2.6234E+03 -1.3290E+03   3.9524E+03  0.000E+00  0.000E+00  0.000E+00  1.99152E+03  2.333E-02  3.000E+00  9.000E+02  0.000E+00  0.000E+00
   1   42   63     6     5    3.9524E+03 -7.2245E+02   4.6749E+03  0.000E+00  0.000E+00  0.000E+00  1.98553E+03  2.781E-02  3.000E+00  1.530E+03  0.000E+00  0.000E+00
   1   41   63     6     6    4.6749E+03  3.5675E+02   4.3181E+03  0.000E+00  0.000E+00  0.000E+00  1.97953E+03  2.851E-02  3.000E+00  6.750E+02  0.000E+00  0.000E+00
   1   40   63     6     7    4.3181E+03 -7.2033E+02   5.0385E+03  0.000E+00  0.000E+00  0.000E+00  1.97353E+03  2.920E-02  3.000E+00  1.530E+03  0.000E+00  0.000E+00
   1   24   55     7     1    0.0000E+00 -2.2373E+03   2.2373E+03  0.000E+00  0.000E+00  0.000E+00  2.03351E+03  1.410E-02  3.000E+00  9.000E+02  0.000E+00  0.000E+00
   1   25   55     7     2    2.2373E+03  1.1649E+02   2.1208E+03  0.000E+00  0.000E+00  0.000E+00  2.03152E+03  1.772E-02  3.000E+00  2.250E+02  0.000E+00  0.000E+00
   1   25   56     7     3    2.1208E+03 -1.3310E+03   3.4518E+03  0.000E+00  0.000E+00  0.000E+00  2.02652E+03  2.112E-02  3.000E+00  9.000E+02  0.000E+00  0.000E+00
   1   26   56     7     4    3.4518E+03 -7.2193E+02   4.1737E+03  0.000E+00  0.000E+00  0.000E+00  2.02253E+03  2.815E-02  3.000E+00  1.530E+03  0.000E+00  0.000E+00
   1   27   56     7     5    4.1737E+03 -6.3379E+02   4.8075E+03  0.000E+00  0.000E+00  0.000E+00  2.01753E+03  3.053E-02  3.000E+00  1.350E+03  0.000E+00  0.000E+00
   1   28   57     7     6    4.8075E+03 -6.3088E+02   5.4384E+03  0.000E+00  0.000E+00  0.000E+00  2.01253E+03  3.268E-02  3.000E+00  1.350E+03  0.000E+00  0.000E+00
   1   29   57     7     7    5.4384E+03 -6.2770E+02   6.0661E+03  0.000E+00  0.000E+00  0.000E+00  2.00754E+03  3.504E-02  3.000E+00  1.350E+03  0.000E+00  0.000E+00
   1   30   57     7     8    6.0661E+03 -6.2294E+02   6.6890E+03  0.000E+00  0.000E+00  0.000E+00  2.00254E+03  3.856E-02  3.000E+00  1.350E+03  0.000E+00  0.000E+00
   1   31   57     7     9    6.6890E+03 -6.1928E+02   7.3083E+03  0.000E+00  0.000E+00  0.000E+00  1.99854E+03  4.128E-02  3.000E+00  1.350E+03  0.000E+00  0.000E+00
   1   32   57     7    10    7.3083E+03 -6.9352E+02   8.0018E+03  0.000E+00  0.000E+00  0.000E+00  1.99355E+03  4.672E-02  3.000E+00  1.530E+03  0.000E+00  0.000E+00
   1   33   57     7    11    8.0018E+03  3.0018E+02   7.7017E+03  0.000E+00  0.000E+00  0.000E+00  1.99156E+03  5.589E-02  3.000E+00  5.400E+02  0.000E+00  0.000E+00
   1   33   58     7    12    7.7017E+03 -2.0529E+02   7.9070E+03  0.000E+00  0.000E+00  0.000E+00  1.99054E+03  4.379E-02  3.000E+00  4.500E+02  0.000E+00  0.000E+00
   1   34   58     7    13    7.9070E+03 -4.9408E+02   8.4010E+03  0.000E+00  0.000E+00  0.000E+00  1.98654E+03  4.252E-02  3.000E+00  1.080E+03  0.000E+00  0.000E+00
   1   34   59     7    14    8.4010E+03 -6.5308E+02   9.0541E+03  0.000E+00  0.000E+00  0.000E+00  1.98455E+03  4.870E-02  3.000E+00  4.500E+02  0.000E+00  0.000E+00
   1   35   59     7    15    9.0541E+03  4.2006E+02   8.6341E+03  0.000E+00  0.000E+00  0.000E+00  1.98155E+03  4.909E-02  3.000E+00  7.650E+02  0.000E+00  0.000E+00
   1   36   59     7    16    8.6341E+03  3.6930E+02   8.2648E+03  0.000E+00  0.000E+00  0.000E+00  1.97755E+03  4.712E-02  3.000E+00  6.750E+02  0.000E+00  0.000E+00
   1   37   60     7    17    8.2648E+03 -2.4807E+03   1.0745E+04  0.000E+00  0.000E+00  0.000E+00  1.97255E+03  4.929E-02  3.000E+00  1.710E+03  0.000E+00  0.000E+00
   1   23   71     8     1    0.0000E+00  0.0000E+00   0.0000E+00  0.000E+00  0.000E+00  0.000E+00  2.05250E+03  0.000E+00  3.000E+00  6.750E+02  0.000E+00  0.000E+00
   1   24   71     8     2    0.0000E+00 -7.5254E+02   7.5254E+02  0.000E+00  0.000E+00  0.000E+00  2.04851E+03  8.146E-03  3.000E+00  1.530E+03  0.000E+00  0.000E+00
   1   25   71     8     3    7.5254E+02  3.4619E+02   4.0635E+02  0.000E+00  0.000E+00  0.000E+00  2.04651E+03  1.287E-02  3.000E+00  6.750E+02  0.000E+00  0.000E+00
   1   26   71     8     4    4.0635E+02 -7.3799E+02   1.1443E+03  0.000E+00  0.000E+00  0.000E+00  2.04552E+03  1.765E-02  3.000E+00  1.530E+03  0.000E+00  0.000E+00
   1   27   72     8     5    1.1443E+03 -7.2689E+02   1.8712E+03  0.000E+00  0.000E+00  0.000E+00  2.04452E+03  2.491E-02  3.000E+00  1.530E+03  0.000E+00  0.000E+00
   1   27   73     8     6    1.8712E+03 -2.0096E+03   3.8808E+03  0.000E+00  0.000E+00  0.000E+00  2.04353E+03  3.432E-02  3.000E+00  4.500E+02  0.000E+00  0.000E+00
   1   28   73     8     7    3.8808E+03 -2.2169E+03   6.0977E+03  0.000E+00  0.000E+00  0.000E+00  2.04255E+03  5.106E-02  3.000E+00  1.530E+03  0.000E+00  0.000E+00
   1   29   73     8     8    6.0977E+03 -3.2829E+03   9.3806E+03  0.000E+00  0.000E+00  0.000E+00  2.04157E+03  6.821E-02  3.000E+00  1.350E+03  0.000E+00  0.000E+00
   1   30   73     8     9    9.3806E+03 -1.9360E+03   1.1317E+04  0.000E+00  0.000E+00  0.000E+00  2.04057E+03  6.596E-02  3.000E+00  1.350E+03  0.000E+00  0.000E+00
   1   31   73     8    10    1.1317E+04 -5.9749E+02   1.1914E+04  0.000E+00  0.000E+00  0.000E+00  2.03756E+03  5.742E-02  3.000E+00  1.350E+03  0.000E+00  0.000E+00
   1   32   73     8    11    1.1914E+04 -1.9483E+03   1.3862E+04  0.000E+00  0.000E+00  0.000E+00  2.03256E+03  5.685E-02  3.000E+00  1.350E+03  0.000E+00  0.000E+00
   1   33   73     8    12    1.3862E+04 -3.2910E+03   1.7153E+04  0.000E+00  0.000E+00  0.000E+00  2.02756E+03  6.222E-02  3.000E+00  1.350E+03  0.000E+00  0.000E+00
   1   34   73     8    13    1.7153E+04 -1.1000E+03   1.8253E+04  0.000E+00  0.000E+00  0.000E+00  2.02356E+03  5.557E-02  3.000E+00  4.500E+02  0.000E+00  0.000E+00
   1   34   74     8    14    1.8253E+04 -2.1951E+03   2.0448E+04  0.000E+00  0.000E+00  0.000E+00  2.01556E+03  6.096E-02  3.000E+00  9.000E+02  0.000E+00  0.000E+00
   1   35   74     8    15    2.0448E+04  3.8519E+02   2.0063E+04  0.000E+00  0.000E+00  0.000E+00  2.01157E+03  7.066E-02  3.000E+00  6.750E+02  0.000E+00  0.000E+00
   1   36   74     8    16    2.0063E+04 -1.0952E+03   2.1158E+04  0.000E+00  0.000E+00  0.000E+00  2.00657E+03  6.625E-02  3.000E+00  4.500E+02  0.000E+00  0.000E+00
   1   36   73     8    17    2.1158E+04 -3.9931E+03   2.5152E+04  0.000E+00  0.000E+00  0.000E+00  2.00256E+03  6.320E-02  3.000E+00  9.000E+02  0.000E+00  0.000E+00
   1   37   73     8    18    2.5152E+04 -6.7788E+03   3.1930E+04  0.000E+00  0.000E+00  0.000E+00  1.99057E+03  6.943E-02  3.000E+00  1.530E+03  0.000E+00  0.000E+00
   1   38   72     8    19    3.1930E+04  3.9019E+02   3.1540E+04  0.000E+00  0.000E+00  0.000E+00  1.97758E+03  7.806E-02  3.000E+00  6.750E+02  0.000E+00  0.000E+00
   1   39   72     8    20    3.1540E+04  3.9246E+02   3.1148E+04  0.000E+00  0.000E+00  0.000E+00  1.96858E+03  8.142E-02  3.000E+00  6.750E+02  0.000E+00  0.000E+00
   1   40   72     8    21    3.1148E+04 -5.5857E+02   3.1706E+04  0.000E+00  0.000E+00  0.000E+00  1.95959E+03  8.624E-02  3.000E+00  1.350E+03  0.000E+00  0.000E+00
   1   41   72     8    22    3.1706E+04  3.9499E+02   3.1311E+04  0.000E+00  0.000E+00  0.000E+00  1.95359E+03  8.516E-02  3.000E+00  6.750E+02  0.000E+00  0.000E+00
   1   42   72     8    23    3.1311E+04 -1.8832E+02   3.1500E+04  0.000E+00  0.000E+00  0.000E+00  1.94658E+03  8.152E-02  3.000E+00  4.500E+02  0.000E+00  0.000E+00
   1   42   73     8    24    3.1500E+04  1.3319E+02   3.1366E+04  0.000E+00  0.000E+00  0.000E+00  1.94459E+03  9.197E-02  3.000E+00  2.250E+02  0.000E+00  0.000E+00
   1   31   38     9     1    5.8288E+04 -1.8334E+03   6.0121E+04  0.000E+00  0.000E+00  0.000E+00  2.07764E+03  1.419E-01  3.000E+00  1.350E+03  0.000E+00  0.000E+00
   1   31   39     9     2    6.0121E+04 -5.0275E+02   6.0624E+04  0.000E+00  0.000E+00  0.000E+00  2.07263E+03  1.276E-01  3.000E+00  1.350E+03  0.000E+00  0.000E+00
   1   31   40     9     3    6.0624E+04 -5.1129E+02   6.1135E+04  0.000E+00  0.000E+00  0.000E+00  2.06262E+03  1.213E-01  3.000E+00  1.350E+03  0.000E+00  0.000E+00
   1   31   41     9     4    6.1135E+04 -4.9636E+02   6.1632E+04  0.000E+00  0.000E+00  0.000E+00  2.05463E+03  1.323E-01  3.000E+00  1.350E+03  0.000E+00  0.000E+00
   1   31   42     9     5    6.1632E+04 -3.7205E+02   6.2004E+04  0.000E+00  0.000E+00  0.000E+00  2.04966E+03  1.555E-01  3.000E+00  1.080E+03  0.000E+00  0.000E+00
   1   30   42     9     6    6.2004E+04 -1.4849E+03   6.3489E+04  0.000E+00  0.000E+00  0.000E+00  2.04870E+03  2.001E-01  3.000E+00  4.500E+02  0.000E+00  0.000E+00
   1   30   43    10     1    8.0512E+04 -1.7892E+03   8.2302E+04  0.000E+00  0.000E+00  0.000E+00  2.04267E+03  1.747E-01  3.000E+00  1.350E+03  0.000E+00  0.000E+00
   1   30   44    10     2    8.2302E+04 -1.1796E+03   8.3481E+04  0.000E+00  0.000E+00  0.000E+00  2.03869E+03  1.893E-01  3.000E+00  9.000E+02  0.000E+00  0.000E+00
   1   29   44    10     3    8.3481E+04 -1.0365E+03   8.4518E+04  0.000E+00  0.000E+00  0.000E+00  2.03770E+03  1.966E-01  3.000E+00  4.500E+02  0.000E+00  0.000E+00
   1   29   45    10     4    8.4518E+04 -4.2463E+02   8.4942E+04  0.000E+00  0.000E+00  0.000E+00  2.03469E+03  1.855E-01  3.000E+00  1.350E+03  0.000E+00  0.000E+00
   1   29   46    10     5    8.4942E+04  4.6267E+02   8.4480E+04  0.000E+00  0.000E+00  0.000E+00  2.03069E+03  1.854E-01  3.000E+00  6.750E+02  0.000E+00  0.000E+00
   1   29   47    10     6    8.4480E+04  1.5179E+02   8.4328E+04  0.000E+00  0.000E+00  0.000E+00  2.02767E+03  1.746E-01  3.000E+00  2.250E+02  0.000E+00  0.000E+00
   1   30   47    10     7    8.4328E+04 -2.7514E+02   8.4603E+04  0.000E+00  0.000E+00  0.000E+00  2.02469E+03  1.943E-01  3.000E+00  9.000E+02  0.000E+00  0.000E+00
   1   30   48    10     8    8.4603E+04  5.4127E+02   8.4062E+04  0.000E+00  0.000E+00  0.000E+00  2.02271E+03  2.075E-01  3.000E+00  7.650E+02  0.000E+00  0.000E+00
   1   31   49    10     9    8.4062E+04  5.8705E+02   8.3475E+04  0.000E+00  0.000E+00  0.000E+00  2.01869E+03  1.866E-01  3.000E+00  8.550E+02  0.000E+00  0.000E+00
   1   32   50    10    10    8.3475E+04 -5.5122E+02   8.4026E+04  0.000E+00  0.000E+00  0.000E+00  2.01268E+03  1.776E-01  3.000E+00  1.710E+03  0.000E+00  0.000E+00
   1   32   51    11     1    1.0416E+05 -3.0793E+03   1.0724E+05  0.000E+00  0.000E+00  0.000E+00  2.00772E+03  2.190E-01  3.000E+00  1.350E+03  0.000E+00  0.000E+00
   1   33   52    11     2    1.0724E+05 -4.4183E+02   1.0768E+05  0.000E+00  0.000E+00  0.000E+00  2.00371E+03  2.112E-01  3.000E+00  1.530E+03  0.000E+00  0.000E+00
   1   33   53    11     3    1.0768E+05 -2.3962E+03   1.1007E+05  0.000E+00  0.000E+00  0.000E+00  1.99968E+03  1.751E-01  3.000E+00  4.500E+02  0.000E+00  0.000E+00
   1   34   53    11     4    1.1007E+05 -1.4231E+03   1.1150E+05  0.000E+00  0.000E+00  0.000E+00  1.99268E+03  1.824E-01  3.000E+00  1.080E+03  0.000E+00  0.000E+00
   1   34   54    11     5    1.1150E+05 -1.1362E+03   1.1263E+05  0.000E+00  0.000E+00  0.000E+00  1.98974E+03  2.376E-01  3.000E+00  9.000E+02  0.000E+00  0.000E+00
   1   35   54    11     6    1.1263E+05 -5.5791E+02   1.1319E+05  0.000E+00  0.000E+00  0.000E+00  1.98876E+03  2.602E-01  3.000E+00  4.500E+02  0.000E+00  0.000E+00
   1   35   55    11     7    1.1319E+05  5.7534E+02   1.1262E+05  0.000E+00  0.000E+00  0.000E+00  1.98675E+03  2.521E-01  3.000E+00  7.650E+02  0.000E+00  0.000E+00
   1   35   56    11     8    1.1262E+05 -3.9037E+02   1.1301E+05  0.000E+00  0.000E+00  0.000E+00  1.98374E+03  2.449E-01  3.000E+00  1.530E+03  0.000E+00  0.000E+00
   1   36   57    11     9    1.1301E+05 -3.9336E+02   1.1340E+05  0.000E+00  0.000E+00  0.000E+00  1.97977E+03  2.700E-01  3.000E+00  1.710E+03  0.000E+00  0.000E+00
   1   36   58    11    10    1.1340E+05 -2.7012E+02   1.1367E+05  0.000E+00  0.000E+00  0.000E+00  1.97880E+03  2.999E-01  3.000E+00  1.350E+03  0.000E+00  0.000E+00
   1   36   59    11    11    1.1367E+05 -2.0926E+02   1.1388E+05  0.000E+00  0.000E+00  0.000E+00  1.97677E+03  2.675E-01  3.000E+00  9.000E+02  0.000E+00  0.000E+00
   1   37   59    11    12    1.1388E+05  1.7592E+02   1.1370E+05  0.000E+00  0.000E+00  0.000E+00  1.97578E+03  2.819E-01  3.000E+00  2.250E+02  0.000E+00  0.000E+00
   1   37   60    11    13    1.1370E+05  4.3811E+02   1.1326E+05  0.000E+00  0.000E+00  0.000E+00  1.97481E+03  3.113E-01  3.000E+00  5.400E+02  0.000E+00  0.000E+00
   1   38   60    11    14    1.1326E+05 -6.6948E+01   1.1333E+05  0.000E+00  0.000E+00  0.000E+00  1.97385E+03  3.512E-01  3.000E+00  4.500E+02  0.000E+00  0.000E+00
   1   38   61    12     1    1.2408E+05 -1.9724E+02   1.2427E+05  0.000E+00  0.000E+00  0.000E+00  1.97187E+03  3.711E-01  3.000E+00  1.530E+03  0.000E+00  0.000E+00
   1   38   62    12     2    1.2427E+05 -2.2691E+02   1.2450E+05  0.000E+00  0.000E+00  0.000E+00  1.97085E+03  3.517E-01  3.000E+00  1.530E+03  0.000E+00  0.000E+00
   1   38   63    12     3    1.2450E+05 -8.4758E+01   1.2459E+05  0.000E+00  0.000E+00  0.000E+00  1.96981E+03  3.116E-01  3.000E+00  4.500E+02  0.000E+00  0.000E+00
   1   39   63    12     4    1.2459E+05 -1.0852E+03   1.2567E+05  0.000E+00  0.000E+00  0.000E+00  1.96879E+03  2.943E-01  3.000E+00  9.000E+02  0.000E+00  0.000E+00
   1   39   64    13     1    1.3071E+05 -3.1212E+02   1.3102E+05  0.000E+00  0.000E+00  0.000E+00  1.96783E+03  3.266E-01  3.000E+00  1.800E+03  0.000E+00  0.000E+00
   1   39   65    13     2    1.3102E+05 -1.0648E+03   1.3209E+05  0.000E+00  0.000E+00  0.000E+00  1.96682E+03  3.169E-01  3.000E+00  9.000E+02  0.000E+00  0.000E+00
   1   40   65    13     3    1.3209E+05 -2.3008E+03   1.3439E+05  0.000E+00  0.000E+00  0.000E+00  1.96589E+03  3.871E-01  3.000E+00  4.500E+02  0.000E+00  0.000E+00
   1   40   66    13     4    1.3439E+05 -1.8926E+02   1.3458E+05  0.000E+00  0.000E+00  0.000E+00  1.96486E+03  3.598E-01  3.000E+00  1.350E+03  0.000E+00  0.000E+00
   1   40   67    13     5    1.3458E+05  5.4475E+02   1.3403E+05  0.000E+00  0.000E+00  0.000E+00  1.96281E+03  3.070E-01  3.000E+00  6.750E+02  0.000E+00  0.000E+00
   1   40   68    13     6    1.3403E+05 -2.2749E+02   1.3426E+05  0.000E+00  0.000E+00  0.000E+00  1.96083E+03  3.315E-01  3.000E+00  1.350E+03  0.000E+00  0.000E+00
   1   41   69    13     7    1.3426E+05  5.4736E+02   1.3371E+05  0.000E+00  0.000E+00  0.000E+00  1.95981E+03  3.109E-01  3.000E+00  6.750E+02  0.000E+00  0.000E+00
   1   41   70    13     8    1.3371E+05 -4.2633E+02   1.3414E+05  0.000E+00  0.000E+00  0.000E+00  1.95675E+03  2.507E-01  3.000E+00  1.710E+03  0.000E+00  0.000E+00
   1   42   71    13     9    1.3414E+05 -3.8339E+02   1.3452E+05  0.000E+00  0.000E+00  0.000E+00  1.95075E+03  2.494E-01  3.000E+00  1.530E+03  0.000E+00  0.000E+00
   1   42   72    13    10    1.3452E+05  5.1337E+02   1.3401E+05  0.000E+00  0.000E+00  0.000E+00  1.94776E+03  2.606E-01  3.000E+00  6.750E+02  0.000E+00  0.000E+00
   1   42   73    13    11    1.3401E+05  1.6641E+02   1.3384E+05  0.000E+00  0.000E+00  0.000E+00  1.94474E+03  2.396E-01  3.000E+00  2.250E+02  0.000E+00  0.000E+00
   1   42   73    14     1    1.6521E+05 -8.6452E+01   1.6529E+05  0.000E+00  0.000E+00  0.000E+00  1.94381E+03  3.079E-01  3.000E+00  4.500E+02  0.000E+00  0.000E+00
   1   43   73    14     2    1.6529E+05 -5.1616E+02   1.6581E+05  0.000E+00  0.000E+00  0.000E+00  1.94285E+03  3.530E-01  3.000E+00  4.500E+02  0.000E+00  0.000E+00
   1   43   74    14     3    1.6581E+05  6.5644E+02   1.6515E+05  0.000E+00  0.000E+00  0.000E+00  1.94186E+03  3.581E-01  3.000E+00  7.650E+02  0.000E+00  0.000E+00
   1   43   75    14     4    1.6515E+05 -1.4515E+02   1.6530E+05  0.000E+00  0.000E+00  0.000E+00  1.93984E+03  3.387E-01  3.000E+00  9.000E+02  0.000E+00  0.000E+00
   1   44   75    14     5    1.6530E+05 -8.0930E+01   1.6538E+05  0.000E+00  0.000E+00  0.000E+00  1.93882E+03  3.202E-01  3.000E+00  4.500E+02  0.000E+00  0.000E+00
   1   44   76    14     6    1.6538E+05  5.7887E+02   1.6480E+05  0.000E+00  0.000E+00  0.000E+00  1.93686E+03  3.576E-01  3.000E+00  6.750E+02  0.000E+00  0.000E+00
   1   44   77    15     1    1.7237E+05  6.3353E+02   1.7174E+05  0.000E+00  0.000E+00  0.000E+00  1.93594E+03  4.386E-01  3.000E+00  6.750E+02  0.000E+00  0.000E+00
   1   44   78    15     2    1.7174E+05  5.7126E+02   1.7117E+05  0.000E+00  0.000E+00  0.000E+00  1.93485E+03  3.463E-01  3.000E+00  6.750E+02  0.000E+00  0.000E+00
   1   44   79    15     3    1.7117E+05 -1.6691E+02   1.7133E+05  0.000E+00  0.000E+00  0.000E+00  1.93181E+03  3.145E-01  3.000E+00  9.000E+02  0.000E+00  0.000E+00
   1   45   79    15     4    1.7133E+05 -5.1496E+02   1.7185E+05  0.000E+00  0.000E+00  0.000E+00  1.93086E+03  3.556E-01  3.000E+00  4.500E+02  0.000E+00  0.000E+00



1
  VOLUMETRIC BUDGET FOR UNSATURATED ZONE BENEATH STREAMS AT END OF TIME STEP  1826 STRESS PERIOD   2
  ------------------------------------------------------------------------------------------------

    CUMULATIVE VOLUMES             L**3    RATES FOR THIS TIME STEP         L**3/T
    ------------------                     ------------------------


          STREAM LOSS =            0.0000            STREAM LOSS =            0.0000
    CHANGE IN STORAGE =            0.0000      CHANGE IN STORAGE =            0.0000
       RECHARGE TO GW =            0.0000         RECHARGE TO GW =            0.0000

             TOTAL IN =            0.0000               TOTAL IN =            0.0000

            TOTAL OUT =            0.0000              TOTAL OUT =            0.0000

             IN - OUT =            0.0000               IN - OUT =            0.0000

  PERCENT DISCREPANCY =            0.00      PERCENT DISCREPANCY =             0.00





UNSATURATED ZONE PACKAGE VOLUMETRIC BUDGET FOR  TIME STEP  1826 STRESS PERIOD    2
  ------------------------------------------------------------------------------



     CUMULATIVE VOLUMES      L**3       RATES FOR THIS TIME STEP      L**3/T
     ------------------                 ------------------------

           IN:                                      IN:
           ---                                      ---
        INFILTRATION =    25338333.7788          INFILTRATION =       13868.8198

          OUT:                                     OUT:
          ----                                     ----
              UZF ET =       0.0000E+00                UZF ET =       0.0000E+00
        UZF RECHARGE =    25338333.7788          UZF RECHARGE =       13868.8198

            IN - OUT =       0.0000E+00              IN - OUT =       0.0000E+00

          STORAGE:                                 STORAGE:
          --------                                 --------
      STORAGE CHANGE =       0.0000E+00        STORAGE CHANGE =       0.0000E+00

 PERCENT DISCREPANCY IS DIFFERENCE BETWEEN IN-OUT MINUS CHANGE IN STORAGE
 DIVIDED BY THE AVERAGE OF IN AND OUT TIMES 100

 PERCENT DISCREPANCY =           0.00     PERCENT DISCREPANCY =           0.00






1
  VOLUMETRIC BUDGET FOR ENTIRE MODEL AT END OF TIME STEP 1826, STRESS PERIOD   2
  ------------------------------------------------------------------------------

     CUMULATIVE VOLUMES      L**3       RATES FOR THIS TIME STEP      L**3/T
     ------------------                 ------------------------

           IN:                                      IN:
           ---                                      ---
             STORAGE =           0.0000               STORAGE =           0.0000
       CONSTANT HEAD =           0.0000         CONSTANT HEAD =           0.0000
               WELLS =      139872.0000                 WELLS =          76.0000
      STREAM LEAKAGE =    34705604.0000        STREAM LEAKAGE =       18996.3223
        UZF RECHARGE =    25339296.0000          UZF RECHARGE =       13869.0908
               GW ET =           0.0000                 GW ET =           0.0000
     SURFACE LEAKAGE =           0.0000       SURFACE LEAKAGE =           0.0000

            TOTAL IN =    60184772.0000              TOTAL IN =       32941.4141

          OUT:                                     OUT:
          ----                                     ----
             STORAGE =           0.0000               STORAGE =           0.0000
       CONSTANT HEAD =     1832020.3750         CONSTANT HEAD =        1002.7369
               WELLS =           0.0000                 WELLS =           0.0000
      STREAM LEAKAGE =   348655552.0000        STREAM LEAKAGE =      190843.3438
        UZF RECHARGE =           0.0000          UZF RECHARGE =           0.0000
               GW ET =           0.0000                 GW ET =           0.0000
     SURFACE LEAKAGE =           0.0000       SURFACE LEAKAGE =           0.0000

           TOTAL OUT =   350487584.0000             TOTAL OUT =      191846.0781

            IN - OUT =  -290302816.0000              IN - OUT =     -158904.6562

 PERCENT DISCREPANCY =        -141.38     PERCENT DISCREPANCY =        -141.38






         TIME SUMMARY AT END OF TIME STEP 1826 IN STRESS PERIOD    2
                    SECONDS     MINUTES      HOURS       DAYS        YEARS
                    -----------------------------------------------------------
   TIME STEP LENGTH  86400.      1440.0      24.000      1.0000     2.73785E-03
 STRESS PERIOD TIME 1.57766E+08 2.62944E+06  43824.      1826.0      4.9993    
         TOTAL TIME 1.57853E+08 2.63088E+06  43848.      1827.0      5.0021    
1
 
 SOLVING FOR HEAD 

 NO OUTPUT CONTROL FOR STRESS PERIOD    2   TIME STEP 1827
 
 SOLVING FOR HEAD 

 NO OUTPUT CONTROL FOR STRESS PERIOD    2   TIME STEP 1828
 
 SOLVING FOR HEAD 

 NO OUTPUT CONTROL FOR STRESS PERIOD    2   TIME STEP 1829
 
 SOLVING FOR HEAD 

 NO OUTPUT CONTROL FOR STRESS PERIOD    2   TIME STEP 1830
 
 SOLVING FOR HEAD 

 NO OUTPUT CONTROL FOR STRESS PERIOD    2   TIME STEP 1831
 
 SOLVING FOR HEAD 

 NO OUTPUT CONTROL FOR STRESS PERIOD    2   TIME STEP 1832
 
 SOLVING FOR HEAD 

 NO OUTPUT CONTROL FOR STRESS PERIOD    2   TIME STEP 1833
 
 SOLVING FOR HEAD 

 NO OUTPUT CONTROL FOR STRESS PERIOD    2   TIME STEP 1834
 
 SOLVING FOR HEAD 

 NO OUTPUT CONTROL FOR STRESS PERIOD    2   TIME STEP 1835
 
 SOLVING FOR HEAD 

 NO OUTPUT CONTROL FOR STRESS PERIOD    2   TIME STEP 1836
 
 SOLVING FOR HEAD 

 NO OUTPUT CONTROL FOR STRESS PERIOD    2   TIME STEP 1837
 
 SOLVING FOR HEAD 

 NO OUTPUT CONTROL FOR STRESS PERIOD    2   TIME STEP 1838
 
 SOLVING FOR HEAD 

 NO OUTPUT CONTROL FOR STRESS PERIOD    2   TIME STEP 1839
 
 SOLVING FOR HEAD 

 NO OUTPUT CONTROL FOR STRESS PERIOD    2   TIME STEP 1840
 
 SOLVING FOR HEAD 

 NO OUTPUT CONTROL FOR STRESS PERIOD    2   TIME STEP 1841
 
 SOLVING FOR HEAD 

 NO OUTPUT CONTROL FOR STRESS PERIOD    2   TIME STEP 1842
 
 SOLVING FOR HEAD 

 NO OUTPUT CONTROL FOR STRESS PERIOD    2   TIME STEP 1843
 
 SOLVING FOR HEAD 

 NO OUTPUT CONTROL FOR STRESS PERIOD    2   TIME STEP 1844
 
 SOLVING FOR HEAD 

 NO OUTPUT CONTROL FOR STRESS PERIOD    2   TIME STEP 1845
 
 SOLVING FOR HEAD 

 NO OUTPUT CONTROL FOR STRESS PERIOD    2   TIME STEP 1846
 
 SOLVING FOR HEAD 

 NO OUTPUT CONTROL FOR STRESS PERIOD    2   TIME STEP 1847
 
 SOLVING FOR HEAD 

 NO OUTPUT CONTROL FOR STRESS PERIOD    2   TIME STEP 1848
 
 SOLVING FOR HEAD 

 NO OUTPUT CONTROL FOR STRESS PERIOD    2   TIME STEP 1849
 
 SOLVING FOR HEAD 

 NO OUTPUT CONTROL FOR STRESS PERIOD    2   TIME STEP 1850
 
 SOLVING FOR HEAD 

 NO OUTPUT CONTROL FOR STRESS PERIOD    2   TIME STEP 1851
 
 SOLVING FOR HEAD 

 NO OUTPUT CONTROL FOR STRESS PERIOD    2   TIME STEP 1852
 
 SOLVING FOR HEAD 

 NO OUTPUT CONTROL FOR STRESS PERIOD    2   TIME STEP 1853
 
 SOLVING FOR HEAD 

 NO OUTPUT CONTROL FOR STRESS PERIOD    2   TIME STEP 1854
 
 SOLVING FOR HEAD 

 NO OUTPUT CONTROL FOR STRESS PERIOD    2   TIME STEP 1855
 
 SOLVING FOR HEAD 

 NO OUTPUT CONTROL FOR STRESS PERIOD    2   TIME STEP 1856
 
 SOLVING FOR HEAD 

 NO OUTPUT CONTROL FOR STRESS PERIOD    2   TIME STEP 1857
 
 SOLVING FOR HEAD 

 NO OUTPUT CONTROL FOR STRESS PERIOD    2   TIME STEP 1858
 
 SOLVING FOR HEAD 

 NO OUTPUT CONTROL FOR STRESS PERIOD    2   TIME STEP 1859
 
 SOLVING FOR HEAD 

 NO OUTPUT CONTROL FOR STRESS PERIOD    2   TIME STEP 1860
 
 SOLVING FOR HEAD 

 NO OUTPUT CONTROL FOR STRESS PERIOD    2   TIME STEP 1861
 
 SOLVING FOR HEAD 

 NO OUTPUT CONTROL FOR STRESS PERIOD    2   TIME STEP 1862
 
 SOLVING FOR HEAD 

 NO OUTPUT CONTROL FOR STRESS PERIOD    2   TIME STEP 1863
 
 SOLVING FOR HEAD 

 NO OUTPUT CONTROL FOR STRESS PERIOD    2   TIME STEP 1864
 
 SOLVING FOR HEAD 

 NO OUTPUT CONTROL FOR STRESS PERIOD    2   TIME STEP 1865
 
 SOLVING FOR HEAD 

 NO OUTPUT CONTROL FOR STRESS PERIOD    2   TIME STEP 1866
 
 SOLVING FOR HEAD 

 NO OUTPUT CONTROL FOR STRESS PERIOD    2   TIME STEP 1867
 
 SOLVING FOR HEAD 

 NO OUTPUT CONTROL FOR STRESS PERIOD    2   TIME STEP 1868
 
 SOLVING FOR HEAD 

 NO OUTPUT CONTROL FOR STRESS PERIOD    2   TIME STEP 1869
 
 SOLVING FOR HEAD 

 NO OUTPUT CONTROL FOR STRESS PERIOD    2   TIME STEP 1870
 
 SOLVING FOR HEAD 

 NO OUTPUT CONTROL FOR STRESS PERIOD    2   TIME STEP 1871
 
 SOLVING FOR HEAD 

 NO OUTPUT CONTROL FOR STRESS PERIOD    2   TIME STEP 1872
 
 SOLVING FOR HEAD 

 NO OUTPUT CONTROL FOR STRESS PERIOD    2   TIME STEP 1873
 
 SOLVING FOR HEAD 

 NO OUTPUT CONTROL FOR STRESS PERIOD    2   TIME STEP 1874
 
 SOLVING FOR HEAD 

 NO OUTPUT CONTROL FOR STRESS PERIOD    2   TIME STEP 1875
 
 SOLVING FOR HEAD 

 NO OUTPUT CONTROL FOR STRESS PERIOD    2   TIME STEP 1876
 
 SOLVING FOR HEAD 

 NO OUTPUT CONTROL FOR STRESS PERIOD    2   TIME STEP 1877
 
 SOLVING FOR HEAD 

 NO OUTPUT CONTROL FOR STRESS PERIOD    2   TIME STEP 1878
 
 SOLVING FOR HEAD 

 NO OUTPUT CONTROL FOR STRESS PERIOD    2   TIME STEP 1879
 
 SOLVING FOR HEAD 

 NO OUTPUT CONTROL FOR STRESS PERIOD    2   TIME STEP 1880
 
 SOLVING FOR HEAD 

 NO OUTPUT CONTROL FOR STRESS PERIOD    2   TIME STEP 1881
 
 SOLVING FOR HEAD 

 NO OUTPUT CONTROL FOR STRESS PERIOD    2   TIME STEP 1882
 
 SOLVING FOR HEAD 

 NO OUTPUT CONTROL FOR STRESS PERIOD    2   TIME STEP 1883
 
 SOLVING FOR HEAD 

 NO OUTPUT CONTROL FOR STRESS PERIOD    2   TIME STEP 1884
 
 SOLVING FOR HEAD 

 NO OUTPUT CONTROL FOR STRESS PERIOD    2   TIME STEP 1885
 
 SOLVING FOR HEAD 

 NO OUTPUT CONTROL FOR STRESS PERIOD    2   TIME STEP 1886
 
 SOLVING FOR HEAD 

 NO OUTPUT CONTROL FOR STRESS PERIOD    2   TIME STEP 1887
 
 SOLVING FOR HEAD 

 NO OUTPUT CONTROL FOR STRESS PERIOD    2   TIME STEP 1888
 
 SOLVING FOR HEAD 

 NO OUTPUT CONTROL FOR STRESS PERIOD    2   TIME STEP 1889
 
 SOLVING FOR HEAD 

 NO OUTPUT CONTROL FOR STRESS PERIOD    2   TIME STEP 1890
 
 SOLVING FOR HEAD 

 NO OUTPUT CONTROL FOR STRESS PERIOD    2   TIME STEP 1891
 
 SOLVING FOR HEAD 

 NO OUTPUT CONTROL FOR STRESS PERIOD    2   TIME STEP 1892
 
 SOLVING FOR HEAD 

 NO OUTPUT CONTROL FOR STRESS PERIOD    2   TIME STEP 1893
 
 SOLVING FOR HEAD 

 NO OUTPUT CONTROL FOR STRESS PERIOD    2   TIME STEP 1894
 
 SOLVING FOR HEAD 

 NO OUTPUT CONTROL FOR STRESS PERIOD    2   TIME STEP 1895
 
 SOLVING FOR HEAD 

 NO OUTPUT CONTROL FOR STRESS PERIOD    2   TIME STEP 1896
 
 SOLVING FOR HEAD 

 NO OUTPUT CONTROL FOR STRESS PERIOD    2   TIME STEP 1897
 
 SOLVING FOR HEAD 

 NO OUTPUT CONTROL FOR STRESS PERIOD    2   TIME STEP 1898
 
 SOLVING FOR HEAD 

 NO OUTPUT CONTROL FOR STRESS PERIOD    2   TIME STEP 1899
 
 SOLVING FOR HEAD 

 NO OUTPUT CONTROL FOR STRESS PERIOD    2   TIME STEP 1900
 
 SOLVING FOR HEAD 

 NO OUTPUT CONTROL FOR STRESS PERIOD    2   TIME STEP 1901
 
 SOLVING FOR HEAD 

 NO OUTPUT CONTROL FOR STRESS PERIOD    2   TIME STEP 1902
 
 SOLVING FOR HEAD 

 NO OUTPUT CONTROL FOR STRESS PERIOD    2   TIME STEP 1903
 
 SOLVING FOR HEAD 

 NO OUTPUT CONTROL FOR STRESS PERIOD    2   TIME STEP 1904
 
 SOLVING FOR HEAD 

 NO OUTPUT CONTROL FOR STRESS PERIOD    2   TIME STEP 1905
 
 SOLVING FOR HEAD 

 NO OUTPUT CONTROL FOR STRESS PERIOD    2   TIME STEP 1906
 
 SOLVING FOR HEAD 

 NO OUTPUT CONTROL FOR STRESS PERIOD    2   TIME STEP 1907
 
 SOLVING FOR HEAD 

 NO OUTPUT CONTROL FOR STRESS PERIOD    2   TIME STEP 1908
 
 SOLVING FOR HEAD 

 NO OUTPUT CONTROL FOR STRESS PERIOD    2   TIME STEP 1909
 
 SOLVING FOR HEAD 

 NO OUTPUT CONTROL FOR STRESS PERIOD    2   TIME STEP 1910
 
 SOLVING FOR HEAD 

 NO OUTPUT CONTROL FOR STRESS PERIOD    2   TIME STEP 1911
 
 SOLVING FOR HEAD 

 NO OUTPUT CONTROL FOR STRESS PERIOD    2   TIME STEP 1912
 
 SOLVING FOR HEAD 

 NO OUTPUT CONTROL FOR STRESS PERIOD    2   TIME STEP 1913
 
 SOLVING FOR HEAD 

 NO OUTPUT CONTROL FOR STRESS PERIOD    2   TIME STEP 1914
 
 SOLVING FOR HEAD 

 NO OUTPUT CONTROL FOR STRESS PERIOD    2   TIME STEP 1915
 
 SOLVING FOR HEAD 

 NO OUTPUT CONTROL FOR STRESS PERIOD    2   TIME STEP 1916
 
 SOLVING FOR HEAD 

 NO OUTPUT CONTROL FOR STRESS PERIOD    2   TIME STEP 1917
 
 SOLVING FOR HEAD 

 NO OUTPUT CONTROL FOR STRESS PERIOD    2   TIME STEP 1918
 
 SOLVING FOR HEAD 

 NO OUTPUT CONTROL FOR STRESS PERIOD    2   TIME STEP 1919
 
 SOLVING FOR HEAD 

 NO OUTPUT CONTROL FOR STRESS PERIOD    2   TIME STEP 1920
 
 SOLVING FOR HEAD 

 NO OUTPUT CONTROL FOR STRESS PERIOD    2   TIME STEP 1921
 
 SOLVING FOR HEAD 

 NO OUTPUT CONTROL FOR STRESS PERIOD    2   TIME STEP 1922
 
 SOLVING FOR HEAD 

 NO OUTPUT CONTROL FOR STRESS PERIOD    2   TIME STEP 1923
 
 SOLVING FOR HEAD 

 NO OUTPUT CONTROL FOR STRESS PERIOD    2   TIME STEP 1924
 
 SOLVING FOR HEAD 

 NO OUTPUT CONTROL FOR STRESS PERIOD    2   TIME STEP 1925
 
 SOLVING FOR HEAD 

 NO OUTPUT CONTROL FOR STRESS PERIOD    2   TIME STEP 1926
 
 SOLVING FOR HEAD 

 NO OUTPUT CONTROL FOR STRESS PERIOD    2   TIME STEP 1927
 
 SOLVING FOR HEAD 

 NO OUTPUT CONTROL FOR STRESS PERIOD    2   TIME STEP 1928
 
 SOLVING FOR HEAD 

 NO OUTPUT CONTROL FOR STRESS PERIOD    2   TIME STEP 1929
 
 SOLVING FOR HEAD 

 NO OUTPUT CONTROL FOR STRESS PERIOD    2   TIME STEP 1930
 
 SOLVING FOR HEAD 

 NO OUTPUT CONTROL FOR STRESS PERIOD    2   TIME STEP 1931
 
 SOLVING FOR HEAD 

 NO OUTPUT CONTROL FOR STRESS PERIOD    2   TIME STEP 1932
 
 SOLVING FOR HEAD 

 NO OUTPUT CONTROL FOR STRESS PERIOD    2   TIME STEP 1933
 
 SOLVING FOR HEAD 

 NO OUTPUT CONTROL FOR STRESS PERIOD    2   TIME STEP 1934
 
 SOLVING FOR HEAD 

 NO OUTPUT CONTROL FOR STRESS PERIOD    2   TIME STEP 1935
 
 SOLVING FOR HEAD 

 NO OUTPUT CONTROL FOR STRESS PERIOD    2   TIME STEP 1936
 
 SOLVING FOR HEAD 

 NO OUTPUT CONTROL FOR STRESS PERIOD    2   TIME STEP 1937
 
 SOLVING FOR HEAD 

 NO OUTPUT CONTROL FOR STRESS PERIOD    2   TIME STEP 1938
 
 SOLVING FOR HEAD 

 NO OUTPUT CONTROL FOR STRESS PERIOD    2   TIME STEP 1939
 
 SOLVING FOR HEAD 

 NO OUTPUT CONTROL FOR STRESS PERIOD    2   TIME STEP 1940
 
 SOLVING FOR HEAD 

 NO OUTPUT CONTROL FOR STRESS PERIOD    2   TIME STEP 1941
 
 SOLVING FOR HEAD 

 NO OUTPUT CONTROL FOR STRESS PERIOD    2   TIME STEP 1942
 
 SOLVING FOR HEAD 

 NO OUTPUT CONTROL FOR STRESS PERIOD    2   TIME STEP 1943
 
 SOLVING FOR HEAD 

 NO OUTPUT CONTROL FOR STRESS PERIOD    2   TIME STEP 1944
 
 SOLVING FOR HEAD 

 NO OUTPUT CONTROL FOR STRESS PERIOD    2   TIME STEP 1945
 
 SOLVING FOR HEAD 

 NO OUTPUT CONTROL FOR STRESS PERIOD    2   TIME STEP 1946
 
 SOLVING FOR HEAD 

 NO OUTPUT CONTROL FOR STRESS PERIOD    2   TIME STEP 1947
 
 SOLVING FOR HEAD 

 NO OUTPUT CONTROL FOR STRESS PERIOD    2   TIME STEP 1948
 
 SOLVING FOR HEAD 

 NO OUTPUT CONTROL FOR STRESS PERIOD    2   TIME STEP 1949
 
 SOLVING FOR HEAD 

 NO OUTPUT CONTROL FOR STRESS PERIOD    2   TIME STEP 1950
 
 SOLVING FOR HEAD 

 NO OUTPUT CONTROL FOR STRESS PERIOD    2   TIME STEP 1951
 
 SOLVING FOR HEAD 

 NO OUTPUT CONTROL FOR STRESS PERIOD    2   TIME STEP 1952
 
 SOLVING FOR HEAD 

 NO OUTPUT CONTROL FOR STRESS PERIOD    2   TIME STEP 1953
 
 SOLVING FOR HEAD 

 NO OUTPUT CONTROL FOR STRESS PERIOD    2   TIME STEP 1954
 
 SOLVING FOR HEAD 

 NO OUTPUT CONTROL FOR STRESS PERIOD    2   TIME STEP 1955
 
 SOLVING FOR HEAD 

 NO OUTPUT CONTROL FOR STRESS PERIOD    2   TIME STEP 1956
 
 SOLVING FOR HEAD 

 NO OUTPUT CONTROL FOR STRESS PERIOD    2   TIME STEP 1957
 
 SOLVING FOR HEAD 

 NO OUTPUT CONTROL FOR STRESS PERIOD    2   TIME STEP 1958
 
 SOLVING FOR HEAD 

 NO OUTPUT CONTROL FOR STRESS PERIOD    2   TIME STEP 1959
 
 SOLVING FOR HEAD 

 NO OUTPUT CONTROL FOR STRESS PERIOD    2   TIME STEP 1960
 
 SOLVING FOR HEAD 

 NO OUTPUT CONTROL FOR STRESS PERIOD    2   TIME STEP 1961
 
 SOLVING FOR HEAD 

 NO OUTPUT CONTROL FOR STRESS PERIOD    2   TIME STEP 1962
 
 SOLVING FOR HEAD 

 NO OUTPUT CONTROL FOR STRESS PERIOD    2   TIME STEP 1963
 
 SOLVING FOR HEAD 

 NO OUTPUT CONTROL FOR STRESS PERIOD    2   TIME STEP 1964
 
 SOLVING FOR HEAD 

 NO OUTPUT CONTROL FOR STRESS PERIOD    2   TIME STEP 1965
 
 SOLVING FOR HEAD 

 NO OUTPUT CONTROL FOR STRESS PERIOD    2   TIME STEP 1966
 
 SOLVING FOR HEAD 

 NO OUTPUT CONTROL FOR STRESS PERIOD    2   TIME STEP 1967
 
 SOLVING FOR HEAD 

 NO OUTPUT CONTROL FOR STRESS PERIOD    2   TIME STEP 1968
 
 SOLVING FOR HEAD 

 NO OUTPUT CONTROL FOR STRESS PERIOD    2   TIME STEP 1969
 
 SOLVING FOR HEAD 

 NO OUTPUT CONTROL FOR STRESS PERIOD    2   TIME STEP 1970
 
 SOLVING FOR HEAD 

 NO OUTPUT CONTROL FOR STRESS PERIOD    2   TIME STEP 1971
 
 SOLVING FOR HEAD 

 NO OUTPUT CONTROL FOR STRESS PERIOD    2   TIME STEP 1972
 
 SOLVING FOR HEAD 

 NO OUTPUT CONTROL FOR STRESS PERIOD    2   TIME STEP 1973
 
 SOLVING FOR HEAD 

 NO OUTPUT CONTROL FOR STRESS PERIOD    2   TIME STEP 1974
 
 SOLVING FOR HEAD 

 NO OUTPUT CONTROL FOR STRESS PERIOD    2   TIME STEP 1975
 
 SOLVING FOR HEAD 

 NO OUTPUT CONTROL FOR STRESS PERIOD    2   TIME STEP 1976
 
 SOLVING FOR HEAD 

 NO OUTPUT CONTROL FOR STRESS PERIOD    2   TIME STEP 1977
 
 SOLVING FOR HEAD 

 NO OUTPUT CONTROL FOR STRESS PERIOD    2   TIME STEP 1978
 
 SOLVING FOR HEAD 

 NO OUTPUT CONTROL FOR STRESS PERIOD    2   TIME STEP 1979
 
 SOLVING FOR HEAD 

 NO OUTPUT CONTROL FOR STRESS PERIOD    2   TIME STEP 1980
 
 SOLVING FOR HEAD 

 NO OUTPUT CONTROL FOR STRESS PERIOD    2   TIME STEP 1981
 
 SOLVING FOR HEAD 

 NO OUTPUT CONTROL FOR STRESS PERIOD    2   TIME STEP 1982
 
 SOLVING FOR HEAD 

 NO OUTPUT CONTROL FOR STRESS PERIOD    2   TIME STEP 1983
 
 SOLVING FOR HEAD 

 NO OUTPUT CONTROL FOR STRESS PERIOD    2   TIME STEP 1984
 
 SOLVING FOR HEAD 

 NO OUTPUT CONTROL FOR STRESS PERIOD    2   TIME STEP 1985
 
 SOLVING FOR HEAD 

 NO OUTPUT CONTROL FOR STRESS PERIOD    2   TIME STEP 1986
 
 SOLVING FOR HEAD 

 NO OUTPUT CONTROL FOR STRESS PERIOD    2   TIME STEP 1987
 
 SOLVING FOR HEAD 

 NO OUTPUT CONTROL FOR STRESS PERIOD    2   TIME STEP 1988
 
 SOLVING FOR HEAD 

 NO OUTPUT CONTROL FOR STRESS PERIOD    2   TIME STEP 1989
 
 SOLVING FOR HEAD 

 NO OUTPUT CONTROL FOR STRESS PERIOD    2   TIME STEP 1990
 
 SOLVING FOR HEAD 

 NO OUTPUT CONTROL FOR STRESS PERIOD    2   TIME STEP 1991
 
 SOLVING FOR HEAD 

 NO OUTPUT CONTROL FOR STRESS PERIOD    2   TIME STEP 1992
 
 SOLVING FOR HEAD 

 NO OUTPUT CONTROL FOR STRESS PERIOD    2   TIME STEP 1993
 
 SOLVING FOR HEAD 

 NO OUTPUT CONTROL FOR STRESS PERIOD    2   TIME STEP 1994
 
 SOLVING FOR HEAD 

 NO OUTPUT CONTROL FOR STRESS PERIOD    2   TIME STEP 1995
 
 SOLVING FOR HEAD 

 NO OUTPUT CONTROL FOR STRESS PERIOD    2   TIME STEP 1996
 
 SOLVING FOR HEAD 

 NO OUTPUT CONTROL FOR STRESS PERIOD    2   TIME STEP 1997
 
 SOLVING FOR HEAD 

 NO OUTPUT CONTROL FOR STRESS PERIOD    2   TIME STEP 1998
 
 SOLVING FOR HEAD 

 NO OUTPUT CONTROL FOR STRESS PERIOD    2   TIME STEP 1999
 
 SOLVING FOR HEAD 

 NO OUTPUT CONTROL FOR STRESS PERIOD    2   TIME STEP 2000
 
 SOLVING FOR HEAD 

 NO OUTPUT CONTROL FOR STRESS PERIOD    2   TIME STEP 2001
 
 SOLVING FOR HEAD 

 NO OUTPUT CONTROL FOR STRESS PERIOD    2   TIME STEP 2002
 
 SOLVING FOR HEAD 

 NO OUTPUT CONTROL FOR STRESS PERIOD    2   TIME STEP 2003
 
 SOLVING FOR HEAD 

 NO OUTPUT CONTROL FOR STRESS PERIOD    2   TIME STEP 2004
 
 SOLVING FOR HEAD 

 NO OUTPUT CONTROL FOR STRESS PERIOD    2   TIME STEP 2005
 
 SOLVING FOR HEAD 

 NO OUTPUT CONTROL FOR STRESS PERIOD    2   TIME STEP 2006
 
 SOLVING FOR HEAD 

 NO OUTPUT CONTROL FOR STRESS PERIOD    2   TIME STEP 2007
 
 SOLVING FOR HEAD 

 NO OUTPUT CONTROL FOR STRESS PERIOD    2   TIME STEP 2008
 
 SOLVING FOR HEAD 

 NO OUTPUT CONTROL FOR STRESS PERIOD    2   TIME STEP 2009
 
 SOLVING FOR HEAD 

 NO OUTPUT CONTROL FOR STRESS PERIOD    2   TIME STEP 2010
 
 SOLVING FOR HEAD 

 NO OUTPUT CONTROL FOR STRESS PERIOD    2   TIME STEP 2011
 
 SOLVING FOR HEAD 

 NO OUTPUT CONTROL FOR STRESS PERIOD    2   TIME STEP 2012
 
 SOLVING FOR HEAD 

 NO OUTPUT CONTROL FOR STRESS PERIOD    2   TIME STEP 2013
 
 SOLVING FOR HEAD 

 NO OUTPUT CONTROL FOR STRESS PERIOD    2   TIME STEP 2014
 
 SOLVING FOR HEAD 

 NO OUTPUT CONTROL FOR STRESS PERIOD    2   TIME STEP 2015
 
 SOLVING FOR HEAD 

 NO OUTPUT CONTROL FOR STRESS PERIOD    2   TIME STEP 2016
 
 SOLVING FOR HEAD 

 NO OUTPUT CONTROL FOR STRESS PERIOD    2   TIME STEP 2017
 
 SOLVING FOR HEAD 

 NO OUTPUT CONTROL FOR STRESS PERIOD    2   TIME STEP 2018
 
 SOLVING FOR HEAD 

 NO OUTPUT CONTROL FOR STRESS PERIOD    2   TIME STEP 2019
 
 SOLVING FOR HEAD 

 NO OUTPUT CONTROL FOR STRESS PERIOD    2   TIME STEP 2020
 
 SOLVING FOR HEAD 

 NO OUTPUT CONTROL FOR STRESS PERIOD    2   TIME STEP 2021
 
 SOLVING FOR HEAD 

 NO OUTPUT CONTROL FOR STRESS PERIOD    2   TIME STEP 2022
 
 SOLVING FOR HEAD 

 NO OUTPUT CONTROL FOR STRESS PERIOD    2   TIME STEP 2023
 
 SOLVING FOR HEAD 

 NO OUTPUT CONTROL FOR STRESS PERIOD    2   TIME STEP 2024
 
 SOLVING FOR HEAD 

 NO OUTPUT CONTROL FOR STRESS PERIOD    2   TIME STEP 2025
 
 SOLVING FOR HEAD 

 NO OUTPUT CONTROL FOR STRESS PERIOD    2   TIME STEP 2026
 
 SOLVING FOR HEAD 

 NO OUTPUT CONTROL FOR STRESS PERIOD    2   TIME STEP 2027
 
 SOLVING FOR HEAD 

 NO OUTPUT CONTROL FOR STRESS PERIOD    2   TIME STEP 2028
 
 SOLVING FOR HEAD 

 NO OUTPUT CONTROL FOR STRESS PERIOD    2   TIME STEP 2029
 
 SOLVING FOR HEAD 

 NO OUTPUT CONTROL FOR STRESS PERIOD    2   TIME STEP 2030
 
 SOLVING FOR HEAD 

 NO OUTPUT CONTROL FOR STRESS PERIOD    2   TIME STEP 2031
 
 SOLVING FOR HEAD 

 NO OUTPUT CONTROL FOR STRESS PERIOD    2   TIME STEP 2032
 
 SOLVING FOR HEAD 

 NO OUTPUT CONTROL FOR STRESS PERIOD    2   TIME STEP 2033
 
 SOLVING FOR HEAD 

 NO OUTPUT CONTROL FOR STRESS PERIOD    2   TIME STEP 2034
 
 SOLVING FOR HEAD 

 NO OUTPUT CONTROL FOR STRESS PERIOD    2   TIME STEP 2035
 
 SOLVING FOR HEAD 

 NO OUTPUT CONTROL FOR STRESS PERIOD    2   TIME STEP 2036
 
 SOLVING FOR HEAD 

 NO OUTPUT CONTROL FOR STRESS PERIOD    2   TIME STEP 2037
 
 SOLVING FOR HEAD 

 NO OUTPUT CONTROL FOR STRESS PERIOD    2   TIME STEP 2038
 
 SOLVING FOR HEAD 

 NO OUTPUT CONTROL FOR STRESS PERIOD    2   TIME STEP 2039
 
 SOLVING FOR HEAD 

 NO OUTPUT CONTROL FOR STRESS PERIOD    2   TIME STEP 2040
 
 SOLVING FOR HEAD 

 NO OUTPUT CONTROL FOR STRESS PERIOD    2   TIME STEP 2041
 
 SOLVING FOR HEAD 

 NO OUTPUT CONTROL FOR STRESS PERIOD    2   TIME STEP 2042
 
 SOLVING FOR HEAD 

 NO OUTPUT CONTROL FOR STRESS PERIOD    2   TIME STEP 2043
 
 SOLVING FOR HEAD 

 NO OUTPUT CONTROL FOR STRESS PERIOD    2   TIME STEP 2044
 
 SOLVING FOR HEAD 

 NO OUTPUT CONTROL FOR STRESS PERIOD    2   TIME STEP 2045
 
 SOLVING FOR HEAD 

 NO OUTPUT CONTROL FOR STRESS PERIOD    2   TIME STEP 2046
 
 SOLVING FOR HEAD 

 NO OUTPUT CONTROL FOR STRESS PERIOD    2   TIME STEP 2047
 
 SOLVING FOR HEAD 

 NO OUTPUT CONTROL FOR STRESS PERIOD    2   TIME STEP 2048
 
 SOLVING FOR HEAD 

 NO OUTPUT CONTROL FOR STRESS PERIOD    2   TIME STEP 2049
 
 SOLVING FOR HEAD 

 NO OUTPUT CONTROL FOR STRESS PERIOD    2   TIME STEP 2050
 
 SOLVING FOR HEAD 

 NO OUTPUT CONTROL FOR STRESS PERIOD    2   TIME STEP 2051
 
 SOLVING FOR HEAD 

 NO OUTPUT CONTROL FOR STRESS PERIOD    2   TIME STEP 2052
 
 SOLVING FOR HEAD 

 NO OUTPUT CONTROL FOR STRESS PERIOD    2   TIME STEP 2053
 
 SOLVING FOR HEAD 

 NO OUTPUT CONTROL FOR STRESS PERIOD    2   TIME STEP 2054
 
 SOLVING FOR HEAD 

 NO OUTPUT CONTROL FOR STRESS PERIOD    2   TIME STEP 2055
 
 SOLVING FOR HEAD 

 NO OUTPUT CONTROL FOR STRESS PERIOD    2   TIME STEP 2056
 
 SOLVING FOR HEAD 

 NO OUTPUT CONTROL FOR STRESS PERIOD    2   TIME STEP 2057
 
 SOLVING FOR HEAD 

 NO OUTPUT CONTROL FOR STRESS PERIOD    2   TIME STEP 2058
 
 SOLVING FOR HEAD 

 NO OUTPUT CONTROL FOR STRESS PERIOD    2   TIME STEP 2059
 
 SOLVING FOR HEAD 

 NO OUTPUT CONTROL FOR STRESS PERIOD    2   TIME STEP 2060
 
 SOLVING FOR HEAD 

 NO OUTPUT CONTROL FOR STRESS PERIOD    2   TIME STEP 2061
 
 SOLVING FOR HEAD 

 NO OUTPUT CONTROL FOR STRESS PERIOD    2   TIME STEP 2062
 
 SOLVING FOR HEAD 

 NO OUTPUT CONTROL FOR STRESS PERIOD    2   TIME STEP 2063
 
 SOLVING FOR HEAD 

 NO OUTPUT CONTROL FOR STRESS PERIOD    2   TIME STEP 2064
 
 SOLVING FOR HEAD 

 NO OUTPUT CONTROL FOR STRESS PERIOD    2   TIME STEP 2065
 
 SOLVING FOR HEAD 

 NO OUTPUT CONTROL FOR STRESS PERIOD    2   TIME STEP 2066
 
 SOLVING FOR HEAD 

 NO OUTPUT CONTROL FOR STRESS PERIOD    2   TIME STEP 2067
 
 SOLVING FOR HEAD 

 NO OUTPUT CONTROL FOR STRESS PERIOD    2   TIME STEP 2068
 
 SOLVING FOR HEAD 

 NO OUTPUT CONTROL FOR STRESS PERIOD    2   TIME STEP 2069
 
 SOLVING FOR HEAD 

 NO OUTPUT CONTROL FOR STRESS PERIOD    2   TIME STEP 2070
 
 SOLVING FOR HEAD 

 NO OUTPUT CONTROL FOR STRESS PERIOD    2   TIME STEP 2071
 
 SOLVING FOR HEAD 

 NO OUTPUT CONTROL FOR STRESS PERIOD    2   TIME STEP 2072
 
 SOLVING FOR HEAD 

 NO OUTPUT CONTROL FOR STRESS PERIOD    2   TIME STEP 2073
 
 SOLVING FOR HEAD 

 NO OUTPUT CONTROL FOR STRESS PERIOD    2   TIME STEP 2074
 
 SOLVING FOR HEAD 

 NO OUTPUT CONTROL FOR STRESS PERIOD    2   TIME STEP 2075
 
 SOLVING FOR HEAD 

 NO OUTPUT CONTROL FOR STRESS PERIOD    2   TIME STEP 2076
 
 SOLVING FOR HEAD 

 NO OUTPUT CONTROL FOR STRESS PERIOD    2   TIME STEP 2077
 
 SOLVING FOR HEAD 

 NO OUTPUT CONTROL FOR STRESS PERIOD    2   TIME STEP 2078
 
 SOLVING FOR HEAD 

 NO OUTPUT CONTROL FOR STRESS PERIOD    2   TIME STEP 2079
 
 SOLVING FOR HEAD 

 NO OUTPUT CONTROL FOR STRESS PERIOD    2   TIME STEP 2080
 
 SOLVING FOR HEAD 

 NO OUTPUT CONTROL FOR STRESS PERIOD    2   TIME STEP 2081
 
 SOLVING FOR HEAD 

 NO OUTPUT CONTROL FOR STRESS PERIOD    2   TIME STEP 2082
 
 SOLVING FOR HEAD 

 NO OUTPUT CONTROL FOR STRESS PERIOD    2   TIME STEP 2083
 
 SOLVING FOR HEAD 

 NO OUTPUT CONTROL FOR STRESS PERIOD    2   TIME STEP 2084
 
 SOLVING FOR HEAD 

 NO OUTPUT CONTROL FOR STRESS PERIOD    2   TIME STEP 2085
 
 SOLVING FOR HEAD 

 NO OUTPUT CONTROL FOR STRESS PERIOD    2   TIME STEP 2086
 
 SOLVING FOR HEAD 

 NO OUTPUT CONTROL FOR STRESS PERIOD    2   TIME STEP 2087
 
 SOLVING FOR HEAD 

 NO OUTPUT CONTROL FOR STRESS PERIOD    2   TIME STEP 2088
 
 SOLVING FOR HEAD 

 NO OUTPUT CONTROL FOR STRESS PERIOD    2   TIME STEP 2089
 
 SOLVING FOR HEAD 

 NO OUTPUT CONTROL FOR STRESS PERIOD    2   TIME STEP 2090
 
 SOLVING FOR HEAD 

 NO OUTPUT CONTROL FOR STRESS PERIOD    2   TIME STEP 2091
 
 SOLVING FOR HEAD 

 NO OUTPUT CONTROL FOR STRESS PERIOD    2   TIME STEP 2092
 
 SOLVING FOR HEAD 

 NO OUTPUT CONTROL FOR STRESS PERIOD    2   TIME STEP 2093
 
 SOLVING FOR HEAD 

 NO OUTPUT CONTROL FOR STRESS PERIOD    2   TIME STEP 2094
 
 SOLVING FOR HEAD 

 NO OUTPUT CONTROL FOR STRESS PERIOD    2   TIME STEP 2095
 
 SOLVING FOR HEAD 

 NO OUTPUT CONTROL FOR STRESS PERIOD    2   TIME STEP 2096
 
 SOLVING FOR HEAD 

 NO OUTPUT CONTROL FOR STRESS PERIOD    2   TIME STEP 2097
 
 SOLVING FOR HEAD 

 NO OUTPUT CONTROL FOR STRESS PERIOD    2   TIME STEP 2098
 
 SOLVING FOR HEAD 

 NO OUTPUT CONTROL FOR STRESS PERIOD    2   TIME STEP 2099
 
 SOLVING FOR HEAD 

 NO OUTPUT CONTROL FOR STRESS PERIOD    2   TIME STEP 2100
 
 SOLVING FOR HEAD 

 NO OUTPUT CONTROL FOR STRESS PERIOD    2   TIME STEP 2101
 
 SOLVING FOR HEAD 

 NO OUTPUT CONTROL FOR STRESS PERIOD    2   TIME STEP 2102
 
 SOLVING FOR HEAD 

 NO OUTPUT CONTROL FOR STRESS PERIOD    2   TIME STEP 2103
 
 SOLVING FOR HEAD 

 NO OUTPUT CONTROL FOR STRESS PERIOD    2   TIME STEP 2104
 
 SOLVING FOR HEAD 

 NO OUTPUT CONTROL FOR STRESS PERIOD    2   TIME STEP 2105
 
 SOLVING FOR HEAD 

 NO OUTPUT CONTROL FOR STRESS PERIOD    2   TIME STEP 2106
 
 SOLVING FOR HEAD 

 NO OUTPUT CONTROL FOR STRESS PERIOD    2   TIME STEP 2107
 
 SOLVING FOR HEAD 

 NO OUTPUT CONTROL FOR STRESS PERIOD    2   TIME STEP 2108
 
 SOLVING FOR HEAD 

 NO OUTPUT CONTROL FOR STRESS PERIOD    2   TIME STEP 2109
 
 SOLVING FOR HEAD 

 NO OUTPUT CONTROL FOR STRESS PERIOD    2   TIME STEP 2110
 
 SOLVING FOR HEAD 

 NO OUTPUT CONTROL FOR STRESS PERIOD    2   TIME STEP 2111
 
 SOLVING FOR HEAD 

 NO OUTPUT CONTROL FOR STRESS PERIOD    2   TIME STEP 2112
 
 SOLVING FOR HEAD 

 NO OUTPUT CONTROL FOR STRESS PERIOD    2   TIME STEP 2113
 
 SOLVING FOR HEAD 

 NO OUTPUT CONTROL FOR STRESS PERIOD    2   TIME STEP 2114
 
 SOLVING FOR HEAD 

 NO OUTPUT CONTROL FOR STRESS PERIOD    2   TIME STEP 2115
 
 SOLVING FOR HEAD 

 NO OUTPUT CONTROL FOR STRESS PERIOD    2   TIME STEP 2116
 
 SOLVING FOR HEAD 

 NO OUTPUT CONTROL FOR STRESS PERIOD    2   TIME STEP 2117
 
 SOLVING FOR HEAD 

 NO OUTPUT CONTROL FOR STRESS PERIOD    2   TIME STEP 2118
 
 SOLVING FOR HEAD 

 NO OUTPUT CONTROL FOR STRESS PERIOD    2   TIME STEP 2119
 
 SOLVING FOR HEAD 

 NO OUTPUT CONTROL FOR STRESS PERIOD    2   TIME STEP 2120
 
 SOLVING FOR HEAD 

 NO OUTPUT CONTROL FOR STRESS PERIOD    2   TIME STEP 2121
 
 SOLVING FOR HEAD 

 NO OUTPUT CONTROL FOR STRESS PERIOD    2   TIME STEP 2122
 
 SOLVING FOR HEAD 

 NO OUTPUT CONTROL FOR STRESS PERIOD    2   TIME STEP 2123
 
 SOLVING FOR HEAD 

 NO OUTPUT CONTROL FOR STRESS PERIOD    2   TIME STEP 2124
 
 SOLVING FOR HEAD 

 NO OUTPUT CONTROL FOR STRESS PERIOD    2   TIME STEP 2125
 
 SOLVING FOR HEAD 

 NO OUTPUT CONTROL FOR STRESS PERIOD    2   TIME STEP 2126
 
 SOLVING FOR HEAD 

 NO OUTPUT CONTROL FOR STRESS PERIOD    2   TIME STEP 2127
 
 SOLVING FOR HEAD 

 NO OUTPUT CONTROL FOR STRESS PERIOD    2   TIME STEP 2128
 
 SOLVING FOR HEAD 

 NO OUTPUT CONTROL FOR STRESS PERIOD    2   TIME STEP 2129
 
 SOLVING FOR HEAD 

 NO OUTPUT CONTROL FOR STRESS PERIOD    2   TIME STEP 2130
 
 SOLVING FOR HEAD 

 NO OUTPUT CONTROL FOR STRESS PERIOD    2   TIME STEP 2131
 
 SOLVING FOR HEAD 

 NO OUTPUT CONTROL FOR STRESS PERIOD    2   TIME STEP 2132
 
 SOLVING FOR HEAD 

 NO OUTPUT CONTROL FOR STRESS PERIOD    2   TIME STEP 2133
 
 SOLVING FOR HEAD 

 NO OUTPUT CONTROL FOR STRESS PERIOD    2   TIME STEP 2134
 
 SOLVING FOR HEAD 

 NO OUTPUT CONTROL FOR STRESS PERIOD    2   TIME STEP 2135
 
 SOLVING FOR HEAD 

 NO OUTPUT CONTROL FOR STRESS PERIOD    2   TIME STEP 2136
 
 SOLVING FOR HEAD 

 NO OUTPUT CONTROL FOR STRESS PERIOD    2   TIME STEP 2137
 
 SOLVING FOR HEAD 

 NO OUTPUT CONTROL FOR STRESS PERIOD    2   TIME STEP 2138
 
 SOLVING FOR HEAD 

 NO OUTPUT CONTROL FOR STRESS PERIOD    2   TIME STEP 2139
 
 SOLVING FOR HEAD 

 NO OUTPUT CONTROL FOR STRESS PERIOD    2   TIME STEP 2140
 
 SOLVING FOR HEAD 

 NO OUTPUT CONTROL FOR STRESS PERIOD    2   TIME STEP 2141
 
 SOLVING FOR HEAD 

 NO OUTPUT CONTROL FOR STRESS PERIOD    2   TIME STEP 2142
 
 SOLVING FOR HEAD 

 NO OUTPUT CONTROL FOR STRESS PERIOD    2   TIME STEP 2143
 
 SOLVING FOR HEAD 

 NO OUTPUT CONTROL FOR STRESS PERIOD    2   TIME STEP 2144
 
 SOLVING FOR HEAD 

 NO OUTPUT CONTROL FOR STRESS PERIOD    2   TIME STEP 2145
 
 SOLVING FOR HEAD 

 NO OUTPUT CONTROL FOR STRESS PERIOD    2   TIME STEP 2146
 
 SOLVING FOR HEAD 

 NO OUTPUT CONTROL FOR STRESS PERIOD    2   TIME STEP 2147
 
 SOLVING FOR HEAD 

 NO OUTPUT CONTROL FOR STRESS PERIOD    2   TIME STEP 2148
 
 SOLVING FOR HEAD 

 NO OUTPUT CONTROL FOR STRESS PERIOD    2   TIME STEP 2149
 
 SOLVING FOR HEAD 

 NO OUTPUT CONTROL FOR STRESS PERIOD    2   TIME STEP 2150
 
 SOLVING FOR HEAD 

 NO OUTPUT CONTROL FOR STRESS PERIOD    2   TIME STEP 2151
 
 SOLVING FOR HEAD 

 NO OUTPUT CONTROL FOR STRESS PERIOD    2   TIME STEP 2152
 
 SOLVING FOR HEAD 

 NO OUTPUT CONTROL FOR STRESS PERIOD    2   TIME STEP 2153
 
 SOLVING FOR HEAD 

 NO OUTPUT CONTROL FOR STRESS PERIOD    2   TIME STEP 2154
 
 SOLVING FOR HEAD 

 NO OUTPUT CONTROL FOR STRESS PERIOD    2   TIME STEP 2155
 
 SOLVING FOR HEAD 

 NO OUTPUT CONTROL FOR STRESS PERIOD    2   TIME STEP 2156
 
 SOLVING FOR HEAD 

 NO OUTPUT CONTROL FOR STRESS PERIOD    2   TIME STEP 2157
 
 SOLVING FOR HEAD 

 NO OUTPUT CONTROL FOR STRESS PERIOD    2   TIME STEP 2158
 
 SOLVING FOR HEAD 

 NO OUTPUT CONTROL FOR STRESS PERIOD    2   TIME STEP 2159
 
 SOLVING FOR HEAD 

 NO OUTPUT CONTROL FOR STRESS PERIOD    2   TIME STEP 2160
 
 SOLVING FOR HEAD 

 NO OUTPUT CONTROL FOR STRESS PERIOD    2   TIME STEP 2161
 
 SOLVING FOR HEAD 

 NO OUTPUT CONTROL FOR STRESS PERIOD    2   TIME STEP 2162
 
 SOLVING FOR HEAD 

 NO OUTPUT CONTROL FOR STRESS PERIOD    2   TIME STEP 2163
 
 SOLVING FOR HEAD 

 NO OUTPUT CONTROL FOR STRESS PERIOD    2   TIME STEP 2164
 
 SOLVING FOR HEAD 

 NO OUTPUT CONTROL FOR STRESS PERIOD    2   TIME STEP 2165
 
 SOLVING FOR HEAD 

 NO OUTPUT CONTROL FOR STRESS PERIOD    2   TIME STEP 2166
 
 SOLVING FOR HEAD 

 NO OUTPUT CONTROL FOR STRESS PERIOD    2   TIME STEP 2167
 
 SOLVING FOR HEAD 

 NO OUTPUT CONTROL FOR STRESS PERIOD    2   TIME STEP 2168
 
 SOLVING FOR HEAD 

 NO OUTPUT CONTROL FOR STRESS PERIOD    2   TIME STEP 2169
 
 SOLVING FOR HEAD 

 NO OUTPUT CONTROL FOR STRESS PERIOD    2   TIME STEP 2170
 
 SOLVING FOR HEAD 

 NO OUTPUT CONTROL FOR STRESS PERIOD    2   TIME STEP 2171
 
 SOLVING FOR HEAD 

 NO OUTPUT CONTROL FOR STRESS PERIOD    2   TIME STEP 2172
 
 SOLVING FOR HEAD 

 NO OUTPUT CONTROL FOR STRESS PERIOD    2   TIME STEP 2173
 
 SOLVING FOR HEAD 

 NO OUTPUT CONTROL FOR STRESS PERIOD    2   TIME STEP 2174
 
 SOLVING FOR HEAD 

 NO OUTPUT CONTROL FOR STRESS PERIOD    2   TIME STEP 2175
 
 SOLVING FOR HEAD 

 NO OUTPUT CONTROL FOR STRESS PERIOD    2   TIME STEP 2176
 
 SOLVING FOR HEAD 

 NO OUTPUT CONTROL FOR STRESS PERIOD    2   TIME STEP 2177
 
 SOLVING FOR HEAD 

 NO OUTPUT CONTROL FOR STRESS PERIOD    2   TIME STEP 2178
 
 SOLVING FOR HEAD 

 NO OUTPUT CONTROL FOR STRESS PERIOD    2   TIME STEP 2179
 
 SOLVING FOR HEAD 

 NO OUTPUT CONTROL FOR STRESS PERIOD    2   TIME STEP 2180
 
 SOLVING FOR HEAD 

 NO OUTPUT CONTROL FOR STRESS PERIOD    2   TIME STEP 2181
 
 SOLVING FOR HEAD 

 NO OUTPUT CONTROL FOR STRESS PERIOD    2   TIME STEP 2182
 
 SOLVING FOR HEAD 

 NO OUTPUT CONTROL FOR STRESS PERIOD    2   TIME STEP 2183
 
 SOLVING FOR HEAD 

 NO OUTPUT CONTROL FOR STRESS PERIOD    2   TIME STEP 2184
 
 SOLVING FOR HEAD 

 NO OUTPUT CONTROL FOR STRESS PERIOD    2   TIME STEP 2185
 
 SOLVING FOR HEAD 

 NO OUTPUT CONTROL FOR STRESS PERIOD    2   TIME STEP 2186
 
 SOLVING FOR HEAD 

 NO OUTPUT CONTROL FOR STRESS PERIOD    2   TIME STEP 2187
 
 SOLVING FOR HEAD 

 NO OUTPUT CONTROL FOR STRESS PERIOD    2   TIME STEP 2188
 
 SOLVING FOR HEAD 

 NO OUTPUT CONTROL FOR STRESS PERIOD    2   TIME STEP 2189
 
 SOLVING FOR HEAD 

 NO OUTPUT CONTROL FOR STRESS PERIOD    2   TIME STEP 2190
 
 SOLVING FOR HEAD 

 NO OUTPUT CONTROL FOR STRESS PERIOD    2   TIME STEP 2191
 
 SOLVING FOR HEAD 

 NO OUTPUT CONTROL FOR STRESS PERIOD    2   TIME STEP 2192
 
 SOLVING FOR HEAD 

 NO OUTPUT CONTROL FOR STRESS PERIOD    2   TIME STEP 2193
 
 SOLVING FOR HEAD 

 NO OUTPUT CONTROL FOR STRESS PERIOD    2   TIME STEP 2194
 
 SOLVING FOR HEAD 

 NO OUTPUT CONTROL FOR STRESS PERIOD    2   TIME STEP 2195
 
 SOLVING FOR HEAD 

 NO OUTPUT CONTROL FOR STRESS PERIOD    2   TIME STEP 2196
 
 SOLVING FOR HEAD 

 NO OUTPUT CONTROL FOR STRESS PERIOD    2   TIME STEP 2197
 
 SOLVING FOR HEAD 

 NO OUTPUT CONTROL FOR STRESS PERIOD    2   TIME STEP 2198
 
 SOLVING FOR HEAD 

 NO OUTPUT CONTROL FOR STRESS PERIOD    2   TIME STEP 2199
 
 SOLVING FOR HEAD 

 NO OUTPUT CONTROL FOR STRESS PERIOD    2   TIME STEP 2200
 
 SOLVING FOR HEAD 

 NO OUTPUT CONTROL FOR STRESS PERIOD    2   TIME STEP 2201
 
 SOLVING FOR HEAD 

 NO OUTPUT CONTROL FOR STRESS PERIOD    2   TIME STEP 2202
 
 SOLVING FOR HEAD 

 NO OUTPUT CONTROL FOR STRESS PERIOD    2   TIME STEP 2203
 
 SOLVING FOR HEAD 

 NO OUTPUT CONTROL FOR STRESS PERIOD    2   TIME STEP 2204
 
 SOLVING FOR HEAD 

 NO OUTPUT CONTROL FOR STRESS PERIOD    2   TIME STEP 2205
 
 SOLVING FOR HEAD 

 NO OUTPUT CONTROL FOR STRESS PERIOD    2   TIME STEP 2206
 
 SOLVING FOR HEAD 

 NO OUTPUT CONTROL FOR STRESS PERIOD    2   TIME STEP 2207
 
 SOLVING FOR HEAD 

 NO OUTPUT CONTROL FOR STRESS PERIOD    2   TIME STEP 2208
 
 SOLVING FOR HEAD 

 NO OUTPUT CONTROL FOR STRESS PERIOD    2   TIME STEP 2209
 
 SOLVING FOR HEAD 

 NO OUTPUT CONTROL FOR STRESS PERIOD    2   TIME STEP 2210
 
 SOLVING FOR HEAD 

 NO OUTPUT CONTROL FOR STRESS PERIOD    2   TIME STEP 2211
 
 SOLVING FOR HEAD 

 NO OUTPUT CONTROL FOR STRESS PERIOD    2   TIME STEP 2212
 
 SOLVING FOR HEAD 

 NO OUTPUT CONTROL FOR STRESS PERIOD    2   TIME STEP 2213
 
 SOLVING FOR HEAD 

 NO OUTPUT CONTROL FOR STRESS PERIOD    2   TIME STEP 2214
 
 SOLVING FOR HEAD 

 NO OUTPUT CONTROL FOR STRESS PERIOD    2   TIME STEP 2215
 
 SOLVING FOR HEAD 

 NO OUTPUT CONTROL FOR STRESS PERIOD    2   TIME STEP 2216
 
 SOLVING FOR HEAD 

 NO OUTPUT CONTROL FOR STRESS PERIOD    2   TIME STEP 2217
 
 SOLVING FOR HEAD 

 NO OUTPUT CONTROL FOR STRESS PERIOD    2   TIME STEP 2218
 
 SOLVING FOR HEAD 

 NO OUTPUT CONTROL FOR STRESS PERIOD    2   TIME STEP 2219
 
 SOLVING FOR HEAD 

 NO OUTPUT CONTROL FOR STRESS PERIOD    2   TIME STEP 2220
 
 SOLVING FOR HEAD 

 NO OUTPUT CONTROL FOR STRESS PERIOD    2   TIME STEP 2221
 
 SOLVING FOR HEAD 

 NO OUTPUT CONTROL FOR STRESS PERIOD    2   TIME STEP 2222
 
 SOLVING FOR HEAD 

 NO OUTPUT CONTROL FOR STRESS PERIOD    2   TIME STEP 2223
 
 SOLVING FOR HEAD 

 NO OUTPUT CONTROL FOR STRESS PERIOD    2   TIME STEP 2224
 
 SOLVING FOR HEAD 

 NO OUTPUT CONTROL FOR STRESS PERIOD    2   TIME STEP 2225
 
 SOLVING FOR HEAD 

 NO OUTPUT CONTROL FOR STRESS PERIOD    2   TIME STEP 2226
 
 SOLVING FOR HEAD 

 NO OUTPUT CONTROL FOR STRESS PERIOD    2   TIME STEP 2227
 
 SOLVING FOR HEAD 

 NO OUTPUT CONTROL FOR STRESS PERIOD    2   TIME STEP 2228
 
 SOLVING FOR HEAD 

 NO OUTPUT CONTROL FOR STRESS PERIOD    2   TIME STEP 2229
 
 SOLVING FOR HEAD 

 NO OUTPUT CONTROL FOR STRESS PERIOD    2   TIME STEP 2230
 
 SOLVING FOR HEAD 

 NO OUTPUT CONTROL FOR STRESS PERIOD    2   TIME STEP 2231
 
 SOLVING FOR HEAD 

 NO OUTPUT CONTROL FOR STRESS PERIOD    2   TIME STEP 2232
 
 SOLVING FOR HEAD 

 NO OUTPUT CONTROL FOR STRESS PERIOD    2   TIME STEP 2233
 
 SOLVING FOR HEAD 

 NO OUTPUT CONTROL FOR STRESS PERIOD    2   TIME STEP 2234
 
 SOLVING FOR HEAD 

 NO OUTPUT CONTROL FOR STRESS PERIOD    2   TIME STEP 2235
 
 SOLVING FOR HEAD 

 NO OUTPUT CONTROL FOR STRESS PERIOD    2   TIME STEP 2236
 
 SOLVING FOR HEAD 

 NO OUTPUT CONTROL FOR STRESS PERIOD    2   TIME STEP 2237
 
 SOLVING FOR HEAD 

 NO OUTPUT CONTROL FOR STRESS PERIOD    2   TIME STEP 2238
 
 SOLVING FOR HEAD 

 NO OUTPUT CONTROL FOR STRESS PERIOD    2   TIME STEP 2239
 
 SOLVING FOR HEAD 

 NO OUTPUT CONTROL FOR STRESS PERIOD    2   TIME STEP 2240
 
 SOLVING FOR HEAD 

 NO OUTPUT CONTROL FOR STRESS PERIOD    2   TIME STEP 2241
 
 SOLVING FOR HEAD 

 NO OUTPUT CONTROL FOR STRESS PERIOD    2   TIME STEP 2242
 
 SOLVING FOR HEAD 

 NO OUTPUT CONTROL FOR STRESS PERIOD    2   TIME STEP 2243
 
 SOLVING FOR HEAD 

 NO OUTPUT CONTROL FOR STRESS PERIOD    2   TIME STEP 2244
 
 SOLVING FOR HEAD 

 NO OUTPUT CONTROL FOR STRESS PERIOD    2   TIME STEP 2245
 
 SOLVING FOR HEAD 

 NO OUTPUT CONTROL FOR STRESS PERIOD    2   TIME STEP 2246
 
 SOLVING FOR HEAD 

 NO OUTPUT CONTROL FOR STRESS PERIOD    2   TIME STEP 2247
 
 SOLVING FOR HEAD 

 NO OUTPUT CONTROL FOR STRESS PERIOD    2   TIME STEP 2248
 
 SOLVING FOR HEAD 

 NO OUTPUT CONTROL FOR STRESS PERIOD    2   TIME STEP 2249
 
 SOLVING FOR HEAD 

 NO OUTPUT CONTROL FOR STRESS PERIOD    2   TIME STEP 2250
 
 SOLVING FOR HEAD 

 NO OUTPUT CONTROL FOR STRESS PERIOD    2   TIME STEP 2251
 
 SOLVING FOR HEAD 

 NO OUTPUT CONTROL FOR STRESS PERIOD    2   TIME STEP 2252
 
 SOLVING FOR HEAD 

 NO OUTPUT CONTROL FOR STRESS PERIOD    2   TIME STEP 2253
 
 SOLVING FOR HEAD 

 NO OUTPUT CONTROL FOR STRESS PERIOD    2   TIME STEP 2254
 
 SOLVING FOR HEAD 

 NO OUTPUT CONTROL FOR STRESS PERIOD    2   TIME STEP 2255
 
 SOLVING FOR HEAD 

 NO OUTPUT CONTROL FOR STRESS PERIOD    2   TIME STEP 2256
 
 SOLVING FOR HEAD 

 NO OUTPUT CONTROL FOR STRESS PERIOD    2   TIME STEP 2257
 
 SOLVING FOR HEAD 

 NO OUTPUT CONTROL FOR STRESS PERIOD    2   TIME STEP 2258
 
 SOLVING FOR HEAD 

 NO OUTPUT CONTROL FOR STRESS PERIOD    2   TIME STEP 2259
 
 SOLVING FOR HEAD 

 NO OUTPUT CONTROL FOR STRESS PERIOD    2   TIME STEP 2260
 
 SOLVING FOR HEAD 

 NO OUTPUT CONTROL FOR STRESS PERIOD    2   TIME STEP 2261
 
 SOLVING FOR HEAD 

 NO OUTPUT CONTROL FOR STRESS PERIOD    2   TIME STEP 2262
 
 SOLVING FOR HEAD 

 NO OUTPUT CONTROL FOR STRESS PERIOD    2   TIME STEP 2263
 
 SOLVING FOR HEAD 

 NO OUTPUT CONTROL FOR STRESS PERIOD    2   TIME STEP 2264
 
 SOLVING FOR HEAD 

 NO OUTPUT CONTROL FOR STRESS PERIOD    2   TIME STEP 2265
 
 SOLVING FOR HEAD 

 NO OUTPUT CONTROL FOR STRESS PERIOD    2   TIME STEP 2266
 
 SOLVING FOR HEAD 

 NO OUTPUT CONTROL FOR STRESS PERIOD    2   TIME STEP 2267
 
 SOLVING FOR HEAD 

 NO OUTPUT CONTROL FOR STRESS PERIOD    2   TIME STEP 2268
 
 SOLVING FOR HEAD 

 NO OUTPUT CONTROL FOR STRESS PERIOD    2   TIME STEP 2269
 
 SOLVING FOR HEAD 

 NO OUTPUT CONTROL FOR STRESS PERIOD    2   TIME STEP 2270
 
 SOLVING FOR HEAD 

 NO OUTPUT CONTROL FOR STRESS PERIOD    2   TIME STEP 2271
 
 SOLVING FOR HEAD 

 NO OUTPUT CONTROL FOR STRESS PERIOD    2   TIME STEP 2272
 
 SOLVING FOR HEAD 

 NO OUTPUT CONTROL FOR STRESS PERIOD    2   TIME STEP 2273
 
 SOLVING FOR HEAD 

 NO OUTPUT CONTROL FOR STRESS PERIOD    2   TIME STEP 2274
 
 SOLVING FOR HEAD 

 NO OUTPUT CONTROL FOR STRESS PERIOD    2   TIME STEP 2275
 
 SOLVING FOR HEAD 

 NO OUTPUT CONTROL FOR STRESS PERIOD    2   TIME STEP 2276
 
 SOLVING FOR HEAD 

 NO OUTPUT CONTROL FOR STRESS PERIOD    2   TIME STEP 2277
 
 SOLVING FOR HEAD 

 NO OUTPUT CONTROL FOR STRESS PERIOD    2   TIME STEP 2278
 
 SOLVING FOR HEAD 

 NO OUTPUT CONTROL FOR STRESS PERIOD    2   TIME STEP 2279
 
 SOLVING FOR HEAD 

 NO OUTPUT CONTROL FOR STRESS PERIOD    2   TIME STEP 2280
 
 SOLVING FOR HEAD 

 NO OUTPUT CONTROL FOR STRESS PERIOD    2   TIME STEP 2281
 
 SOLVING FOR HEAD 

 NO OUTPUT CONTROL FOR STRESS PERIOD    2   TIME STEP 2282
 
 SOLVING FOR HEAD 

 NO OUTPUT CONTROL FOR STRESS PERIOD    2   TIME STEP 2283
 
 SOLVING FOR HEAD 

 NO OUTPUT CONTROL FOR STRESS PERIOD    2   TIME STEP 2284
 
 SOLVING FOR HEAD 

 NO OUTPUT CONTROL FOR STRESS PERIOD    2   TIME STEP 2285
 
 SOLVING FOR HEAD 

 NO OUTPUT CONTROL FOR STRESS PERIOD    2   TIME STEP 2286
 
 SOLVING FOR HEAD 

 NO OUTPUT CONTROL FOR STRESS PERIOD    2   TIME STEP 2287
 
 SOLVING FOR HEAD 

 NO OUTPUT CONTROL FOR STRESS PERIOD    2   TIME STEP 2288
 
 SOLVING FOR HEAD 

 NO OUTPUT CONTROL FOR STRESS PERIOD    2   TIME STEP 2289
 
 SOLVING FOR HEAD 

 NO OUTPUT CONTROL FOR STRESS PERIOD    2   TIME STEP 2290
 
 SOLVING FOR HEAD 

 NO OUTPUT CONTROL FOR STRESS PERIOD    2   TIME STEP 2291
 
 SOLVING FOR HEAD 

 NO OUTPUT CONTROL FOR STRESS PERIOD    2   TIME STEP 2292
 
 SOLVING FOR HEAD 

 NO OUTPUT CONTROL FOR STRESS PERIOD    2   TIME STEP 2293
 
 SOLVING FOR HEAD 

 NO OUTPUT CONTROL FOR STRESS PERIOD    2   TIME STEP 2294
 
 SOLVING FOR HEAD 

 NO OUTPUT CONTROL FOR STRESS PERIOD    2   TIME STEP 2295
 
 SOLVING FOR HEAD 

 NO OUTPUT CONTROL FOR STRESS PERIOD    2   TIME STEP 2296
 
 SOLVING FOR HEAD 

 NO OUTPUT CONTROL FOR STRESS PERIOD    2   TIME STEP 2297
 
 SOLVING FOR HEAD 

 NO OUTPUT CONTROL FOR STRESS PERIOD    2   TIME STEP 2298
 
 SOLVING FOR HEAD 

 NO OUTPUT CONTROL FOR STRESS PERIOD    2   TIME STEP 2299
 
 SOLVING FOR HEAD 

 NO OUTPUT CONTROL FOR STRESS PERIOD    2   TIME STEP 2300
 
 SOLVING FOR HEAD 

 NO OUTPUT CONTROL FOR STRESS PERIOD    2   TIME STEP 2301
 
 SOLVING FOR HEAD 

 NO OUTPUT CONTROL FOR STRESS PERIOD    2   TIME STEP 2302
 
 SOLVING FOR HEAD 

 NO OUTPUT CONTROL FOR STRESS PERIOD    2   TIME STEP 2303
 
 SOLVING FOR HEAD 

 NO OUTPUT CONTROL FOR STRESS PERIOD    2   TIME STEP 2304
 
 SOLVING FOR HEAD 

 NO OUTPUT CONTROL FOR STRESS PERIOD    2   TIME STEP 2305
 
 SOLVING FOR HEAD 

 NO OUTPUT CONTROL FOR STRESS PERIOD    2   TIME STEP 2306
 
 SOLVING FOR HEAD 

 NO OUTPUT CONTROL FOR STRESS PERIOD    2   TIME STEP 2307
 
 SOLVING FOR HEAD 

 NO OUTPUT CONTROL FOR STRESS PERIOD    2   TIME STEP 2308
 
 SOLVING FOR HEAD 

 NO OUTPUT CONTROL FOR STRESS PERIOD    2   TIME STEP 2309
 
 SOLVING FOR HEAD 

 NO OUTPUT CONTROL FOR STRESS PERIOD    2   TIME STEP 2310
 
 SOLVING FOR HEAD 

 NO OUTPUT CONTROL FOR STRESS PERIOD    2   TIME STEP 2311
 
 SOLVING FOR HEAD 

 NO OUTPUT CONTROL FOR STRESS PERIOD    2   TIME STEP 2312
 
 SOLVING FOR HEAD 

 NO OUTPUT CONTROL FOR STRESS PERIOD    2   TIME STEP 2313
 
 SOLVING FOR HEAD 

 NO OUTPUT CONTROL FOR STRESS PERIOD    2   TIME STEP 2314
 
 SOLVING FOR HEAD 

 NO OUTPUT CONTROL FOR STRESS PERIOD    2   TIME STEP 2315
 
 SOLVING FOR HEAD 

 NO OUTPUT CONTROL FOR STRESS PERIOD    2   TIME STEP 2316
 
 SOLVING FOR HEAD 

 NO OUTPUT CONTROL FOR STRESS PERIOD    2   TIME STEP 2317
 
 SOLVING FOR HEAD 

 NO OUTPUT CONTROL FOR STRESS PERIOD    2   TIME STEP 2318
 
 SOLVING FOR HEAD 

 NO OUTPUT CONTROL FOR STRESS PERIOD    2   TIME STEP 2319
 
 SOLVING FOR HEAD 

 NO OUTPUT CONTROL FOR STRESS PERIOD    2   TIME STEP 2320
 
 SOLVING FOR HEAD 

 NO OUTPUT CONTROL FOR STRESS PERIOD    2   TIME STEP 2321
 
 SOLVING FOR HEAD 

 NO OUTPUT CONTROL FOR STRESS PERIOD    2   TIME STEP 2322
 
 SOLVING FOR HEAD 

 NO OUTPUT CONTROL FOR STRESS PERIOD    2   TIME STEP 2323
 
 SOLVING FOR HEAD 

 NO OUTPUT CONTROL FOR STRESS PERIOD    2   TIME STEP 2324
 
 SOLVING FOR HEAD 

 NO OUTPUT CONTROL FOR STRESS PERIOD    2   TIME STEP 2325
 
 SOLVING FOR HEAD 

 NO OUTPUT CONTROL FOR STRESS PERIOD    2   TIME STEP 2326
 
 SOLVING FOR HEAD 

 NO OUTPUT CONTROL FOR STRESS PERIOD    2   TIME STEP 2327
 
 SOLVING FOR HEAD 

 NO OUTPUT CONTROL FOR STRESS PERIOD    2   TIME STEP 2328
 
 SOLVING FOR HEAD 

 NO OUTPUT CONTROL FOR STRESS PERIOD    2   TIME STEP 2329
 
 SOLVING FOR HEAD 

 NO OUTPUT CONTROL FOR STRESS PERIOD    2   TIME STEP 2330
 
 SOLVING FOR HEAD 

 NO OUTPUT CONTROL FOR STRESS PERIOD    2   TIME STEP 2331
 
 SOLVING FOR HEAD 

 NO OUTPUT CONTROL FOR STRESS PERIOD    2   TIME STEP 2332
 
 SOLVING FOR HEAD 

 NO OUTPUT CONTROL FOR STRESS PERIOD    2   TIME STEP 2333
 
 SOLVING FOR HEAD 

 NO OUTPUT CONTROL FOR STRESS PERIOD    2   TIME STEP 2334
 
 SOLVING FOR HEAD 

 NO OUTPUT CONTROL FOR STRESS PERIOD    2   TIME STEP 2335
 
 SOLVING FOR HEAD 

 NO OUTPUT CONTROL FOR STRESS PERIOD    2   TIME STEP 2336
 
 SOLVING FOR HEAD 

 NO OUTPUT CONTROL FOR STRESS PERIOD    2   TIME STEP 2337
 
 SOLVING FOR HEAD 

 NO OUTPUT CONTROL FOR STRESS PERIOD    2   TIME STEP 2338
 
 SOLVING FOR HEAD 

 NO OUTPUT CONTROL FOR STRESS PERIOD    2   TIME STEP 2339
 
 SOLVING FOR HEAD 

 NO OUTPUT CONTROL FOR STRESS PERIOD    2   TIME STEP 2340
 
 SOLVING FOR HEAD 

 NO OUTPUT CONTROL FOR STRESS PERIOD    2   TIME STEP 2341
 
 SOLVING FOR HEAD 

 NO OUTPUT CONTROL FOR STRESS PERIOD    2   TIME STEP 2342
 
 SOLVING FOR HEAD 

 NO OUTPUT CONTROL FOR STRESS PERIOD    2   TIME STEP 2343
 
 SOLVING FOR HEAD 

 NO OUTPUT CONTROL FOR STRESS PERIOD    2   TIME STEP 2344
 
 SOLVING FOR HEAD 

 NO OUTPUT CONTROL FOR STRESS PERIOD    2   TIME STEP 2345
 
 SOLVING FOR HEAD 

 NO OUTPUT CONTROL FOR STRESS PERIOD    2   TIME STEP 2346
 
 SOLVING FOR HEAD 

 NO OUTPUT CONTROL FOR STRESS PERIOD    2   TIME STEP 2347
 
 SOLVING FOR HEAD 

 NO OUTPUT CONTROL FOR STRESS PERIOD    2   TIME STEP 2348
 
 SOLVING FOR HEAD 

 NO OUTPUT CONTROL FOR STRESS PERIOD    2   TIME STEP 2349
 
 SOLVING FOR HEAD 

 NO OUTPUT CONTROL FOR STRESS PERIOD    2   TIME STEP 2350
 
 SOLVING FOR HEAD 

 NO OUTPUT CONTROL FOR STRESS PERIOD    2   TIME STEP 2351
 
 SOLVING FOR HEAD 

 NO OUTPUT CONTROL FOR STRESS PERIOD    2   TIME STEP 2352
 
 SOLVING FOR HEAD 

 NO OUTPUT CONTROL FOR STRESS PERIOD    2   TIME STEP 2353
 
 SOLVING FOR HEAD 

 NO OUTPUT CONTROL FOR STRESS PERIOD    2   TIME STEP 2354
 
 SOLVING FOR HEAD 

 NO OUTPUT CONTROL FOR STRESS PERIOD    2   TIME STEP 2355
 
 SOLVING FOR HEAD 

 NO OUTPUT CONTROL FOR STRESS PERIOD    2   TIME STEP 2356
 
 SOLVING FOR HEAD 

 NO OUTPUT CONTROL FOR STRESS PERIOD    2   TIME STEP 2357
 
 SOLVING FOR HEAD 

 NO OUTPUT CONTROL FOR STRESS PERIOD    2   TIME STEP 2358
 
 SOLVING FOR HEAD 

 NO OUTPUT CONTROL FOR STRESS PERIOD    2   TIME STEP 2359
 
 SOLVING FOR HEAD 

 NO OUTPUT CONTROL FOR STRESS PERIOD    2   TIME STEP 2360
 
 SOLVING FOR HEAD 

 NO OUTPUT CONTROL FOR STRESS PERIOD    2   TIME STEP 2361
 
 SOLVING FOR HEAD 

 NO OUTPUT CONTROL FOR STRESS PERIOD    2   TIME STEP 2362
 
 SOLVING FOR HEAD 

 NO OUTPUT CONTROL FOR STRESS PERIOD    2   TIME STEP 2363
 
 SOLVING FOR HEAD 

 NO OUTPUT CONTROL FOR STRESS PERIOD    2   TIME STEP 2364
 
 SOLVING FOR HEAD 

 NO OUTPUT CONTROL FOR STRESS PERIOD    2   TIME STEP 2365
 
 SOLVING FOR HEAD 

 NO OUTPUT CONTROL FOR STRESS PERIOD    2   TIME STEP 2366
 
 SOLVING FOR HEAD 

 NO OUTPUT CONTROL FOR STRESS PERIOD    2   TIME STEP 2367
 
 SOLVING FOR HEAD 

 NO OUTPUT CONTROL FOR STRESS PERIOD    2   TIME STEP 2368
 
 SOLVING FOR HEAD 

 NO OUTPUT CONTROL FOR STRESS PERIOD    2   TIME STEP 2369
 
 SOLVING FOR HEAD 

 NO OUTPUT CONTROL FOR STRESS PERIOD    2   TIME STEP 2370
 
 SOLVING FOR HEAD 

 NO OUTPUT CONTROL FOR STRESS PERIOD    2   TIME STEP 2371
 
 SOLVING FOR HEAD 

 NO OUTPUT CONTROL FOR STRESS PERIOD    2   TIME STEP 2372
 
 SOLVING FOR HEAD 

 NO OUTPUT CONTROL FOR STRESS PERIOD    2   TIME STEP 2373
 
 SOLVING FOR HEAD 

 NO OUTPUT CONTROL FOR STRESS PERIOD    2   TIME STEP 2374
 
 SOLVING FOR HEAD 

 NO OUTPUT CONTROL FOR STRESS PERIOD    2   TIME STEP 2375
 
 SOLVING FOR HEAD 

 NO OUTPUT CONTROL FOR STRESS PERIOD    2   TIME STEP 2376
 
 SOLVING FOR HEAD 

 NO OUTPUT CONTROL FOR STRESS PERIOD    2   TIME STEP 2377
 
 SOLVING FOR HEAD 

 NO OUTPUT CONTROL FOR STRESS PERIOD    2   TIME STEP 2378
 
 SOLVING FOR HEAD 

 NO OUTPUT CONTROL FOR STRESS PERIOD    2   TIME STEP 2379
 
 SOLVING FOR HEAD 

 NO OUTPUT CONTROL FOR STRESS PERIOD    2   TIME STEP 2380
 
 SOLVING FOR HEAD 

 NO OUTPUT CONTROL FOR STRESS PERIOD    2   TIME STEP 2381
 
 SOLVING FOR HEAD 

 NO OUTPUT CONTROL FOR STRESS PERIOD    2   TIME STEP 2382
 
 SOLVING FOR HEAD 

 NO OUTPUT CONTROL FOR STRESS PERIOD    2   TIME STEP 2383
 
 SOLVING FOR HEAD 

 NO OUTPUT CONTROL FOR STRESS PERIOD    2   TIME STEP 2384
 
 SOLVING FOR HEAD 

 NO OUTPUT CONTROL FOR STRESS PERIOD    2   TIME STEP 2385
 
 SOLVING FOR HEAD 

 NO OUTPUT CONTROL FOR STRESS PERIOD    2   TIME STEP 2386
 
 SOLVING FOR HEAD 

 NO OUTPUT CONTROL FOR STRESS PERIOD    2   TIME STEP 2387
 
 SOLVING FOR HEAD 

 NO OUTPUT CONTROL FOR STRESS PERIOD    2   TIME STEP 2388
 
 SOLVING FOR HEAD 

 NO OUTPUT CONTROL FOR STRESS PERIOD    2   TIME STEP 2389
 
 SOLVING FOR HEAD 

 NO OUTPUT CONTROL FOR STRESS PERIOD    2   TIME STEP 2390
 
 SOLVING FOR HEAD 

 NO OUTPUT CONTROL FOR STRESS PERIOD    2   TIME STEP 2391
 
 SOLVING FOR HEAD 

 NO OUTPUT CONTROL FOR STRESS PERIOD    2   TIME STEP 2392
 
 SOLVING FOR HEAD 

 NO OUTPUT CONTROL FOR STRESS PERIOD    2   TIME STEP 2393
 
 SOLVING FOR HEAD 

 NO OUTPUT CONTROL FOR STRESS PERIOD    2   TIME STEP 2394
 
 SOLVING FOR HEAD 

 NO OUTPUT CONTROL FOR STRESS PERIOD    2   TIME STEP 2395
 
 SOLVING FOR HEAD 

 NO OUTPUT CONTROL FOR STRESS PERIOD    2   TIME STEP 2396
 
 SOLVING FOR HEAD 

 NO OUTPUT CONTROL FOR STRESS PERIOD    2   TIME STEP 2397
 
 SOLVING FOR HEAD 

 NO OUTPUT CONTROL FOR STRESS PERIOD    2   TIME STEP 2398
 
 SOLVING FOR HEAD 

 NO OUTPUT CONTROL FOR STRESS PERIOD    2   TIME STEP 2399
 
 SOLVING FOR HEAD 

 NO OUTPUT CONTROL FOR STRESS PERIOD    2   TIME STEP 2400
 
 SOLVING FOR HEAD 

 NO OUTPUT CONTROL FOR STRESS PERIOD    2   TIME STEP 2401
 
 SOLVING FOR HEAD 

 NO OUTPUT CONTROL FOR STRESS PERIOD    2   TIME STEP 2402
 
 SOLVING FOR HEAD 

 NO OUTPUT CONTROL FOR STRESS PERIOD    2   TIME STEP 2403
 
 SOLVING FOR HEAD 

 NO OUTPUT CONTROL FOR STRESS PERIOD    2   TIME STEP 2404
 
 SOLVING FOR HEAD 

 NO OUTPUT CONTROL FOR STRESS PERIOD    2   TIME STEP 2405
 
 SOLVING FOR HEAD 

 NO OUTPUT CONTROL FOR STRESS PERIOD    2   TIME STEP 2406
 
 SOLVING FOR HEAD 

 NO OUTPUT CONTROL FOR STRESS PERIOD    2   TIME STEP 2407
 
 SOLVING FOR HEAD 

 NO OUTPUT CONTROL FOR STRESS PERIOD    2   TIME STEP 2408
 
 SOLVING FOR HEAD 

 NO OUTPUT CONTROL FOR STRESS PERIOD    2   TIME STEP 2409
 
 SOLVING FOR HEAD 

 NO OUTPUT CONTROL FOR STRESS PERIOD    2   TIME STEP 2410
 
 SOLVING FOR HEAD 

 NO OUTPUT CONTROL FOR STRESS PERIOD    2   TIME STEP 2411
 
 SOLVING FOR HEAD 

 NO OUTPUT CONTROL FOR STRESS PERIOD    2   TIME STEP 2412
 
 SOLVING FOR HEAD 

 NO OUTPUT CONTROL FOR STRESS PERIOD    2   TIME STEP 2413
 
 SOLVING FOR HEAD 

 NO OUTPUT CONTROL FOR STRESS PERIOD    2   TIME STEP 2414
 
 SOLVING FOR HEAD 

 NO OUTPUT CONTROL FOR STRESS PERIOD    2   TIME STEP 2415
 
 SOLVING FOR HEAD 

 NO OUTPUT CONTROL FOR STRESS PERIOD    2   TIME STEP 2416
 
 SOLVING FOR HEAD 

 NO OUTPUT CONTROL FOR STRESS PERIOD    2   TIME STEP 2417
 
 SOLVING FOR HEAD 

 NO OUTPUT CONTROL FOR STRESS PERIOD    2   TIME STEP 2418
 
 SOLVING FOR HEAD 

 NO OUTPUT CONTROL FOR STRESS PERIOD    2   TIME STEP 2419
 
 SOLVING FOR HEAD 

 NO OUTPUT CONTROL FOR STRESS PERIOD    2   TIME STEP 2420
 
 SOLVING FOR HEAD 

 NO OUTPUT CONTROL FOR STRESS PERIOD    2   TIME STEP 2421
 
 SOLVING FOR HEAD 

 NO OUTPUT CONTROL FOR STRESS PERIOD    2   TIME STEP 2422
 
 SOLVING FOR HEAD 

 NO OUTPUT CONTROL FOR STRESS PERIOD    2   TIME STEP 2423
 
 SOLVING FOR HEAD 

 NO OUTPUT CONTROL FOR STRESS PERIOD    2   TIME STEP 2424
 
 SOLVING FOR HEAD 

 NO OUTPUT CONTROL FOR STRESS PERIOD    2   TIME STEP 2425
 
 SOLVING FOR HEAD 

 NO OUTPUT CONTROL FOR STRESS PERIOD    2   TIME STEP 2426
 
 SOLVING FOR HEAD 

 NO OUTPUT CONTROL FOR STRESS PERIOD    2   TIME STEP 2427
 
 SOLVING FOR HEAD 

 NO OUTPUT CONTROL FOR STRESS PERIOD    2   TIME STEP 2428
 
 SOLVING FOR HEAD 

 NO OUTPUT CONTROL FOR STRESS PERIOD    2   TIME STEP 2429
 
 SOLVING FOR HEAD 

 NO OUTPUT CONTROL FOR STRESS PERIOD    2   TIME STEP 2430
 
 SOLVING FOR HEAD 

 NO OUTPUT CONTROL FOR STRESS PERIOD    2   TIME STEP 2431
 
 SOLVING FOR HEAD 

 NO OUTPUT CONTROL FOR STRESS PERIOD    2   TIME STEP 2432
 
 SOLVING FOR HEAD 

 NO OUTPUT CONTROL FOR STRESS PERIOD    2   TIME STEP 2433
 
 SOLVING FOR HEAD 

 NO OUTPUT CONTROL FOR STRESS PERIOD    2   TIME STEP 2434
 
 SOLVING FOR HEAD 

 NO OUTPUT CONTROL FOR STRESS PERIOD    2   TIME STEP 2435
 
 SOLVING FOR HEAD 

 NO OUTPUT CONTROL FOR STRESS PERIOD    2   TIME STEP 2436
 
 SOLVING FOR HEAD 

 NO OUTPUT CONTROL FOR STRESS PERIOD    2   TIME STEP 2437
 
 SOLVING FOR HEAD 

 NO OUTPUT CONTROL FOR STRESS PERIOD    2   TIME STEP 2438
 
 SOLVING FOR HEAD 

 NO OUTPUT CONTROL FOR STRESS PERIOD    2   TIME STEP 2439
 
 SOLVING FOR HEAD 

 NO OUTPUT CONTROL FOR STRESS PERIOD    2   TIME STEP 2440
 
 SOLVING FOR HEAD 

 NO OUTPUT CONTROL FOR STRESS PERIOD    2   TIME STEP 2441
 
 SOLVING FOR HEAD 

 NO OUTPUT CONTROL FOR STRESS PERIOD    2   TIME STEP 2442
 
 SOLVING FOR HEAD 

 NO OUTPUT CONTROL FOR STRESS PERIOD    2   TIME STEP 2443
 
 SOLVING FOR HEAD 

 NO OUTPUT CONTROL FOR STRESS PERIOD    2   TIME STEP 2444
 
 SOLVING FOR HEAD 

 NO OUTPUT CONTROL FOR STRESS PERIOD    2   TIME STEP 2445
 
 SOLVING FOR HEAD 

 NO OUTPUT CONTROL FOR STRESS PERIOD    2   TIME STEP 2446
 
 SOLVING FOR HEAD 

 NO OUTPUT CONTROL FOR STRESS PERIOD    2   TIME STEP 2447
 
 SOLVING FOR HEAD 

 NO OUTPUT CONTROL FOR STRESS PERIOD    2   TIME STEP 2448
 
 SOLVING FOR HEAD 

 NO OUTPUT CONTROL FOR STRESS PERIOD    2   TIME STEP 2449
 
 SOLVING FOR HEAD 

 NO OUTPUT CONTROL FOR STRESS PERIOD    2   TIME STEP 2450
 
 SOLVING FOR HEAD 

 NO OUTPUT CONTROL FOR STRESS PERIOD    2   TIME STEP 2451
 
 SOLVING FOR HEAD 

 NO OUTPUT CONTROL FOR STRESS PERIOD    2   TIME STEP 2452
 
 SOLVING FOR HEAD 

 NO OUTPUT CONTROL FOR STRESS PERIOD    2   TIME STEP 2453
 
 SOLVING FOR HEAD 

 NO OUTPUT CONTROL FOR STRESS PERIOD    2   TIME STEP 2454
 
 SOLVING FOR HEAD 

 NO OUTPUT CONTROL FOR STRESS PERIOD    2   TIME STEP 2455
 
 SOLVING FOR HEAD 

 NO OUTPUT CONTROL FOR STRESS PERIOD    2   TIME STEP 2456
 
 SOLVING FOR HEAD 

 NO OUTPUT CONTROL FOR STRESS PERIOD    2   TIME STEP 2457
 
 SOLVING FOR HEAD 

 NO OUTPUT CONTROL FOR STRESS PERIOD    2   TIME STEP 2458
 
 SOLVING FOR HEAD 

 NO OUTPUT CONTROL FOR STRESS PERIOD    2   TIME STEP 2459
 
 SOLVING FOR HEAD 

 NO OUTPUT CONTROL FOR STRESS PERIOD    2   TIME STEP 2460
 
 SOLVING FOR HEAD 

 NO OUTPUT CONTROL FOR STRESS PERIOD    2   TIME STEP 2461
 
 SOLVING FOR HEAD 

 NO OUTPUT CONTROL FOR STRESS PERIOD    2   TIME STEP 2462
 
 SOLVING FOR HEAD 

 NO OUTPUT CONTROL FOR STRESS PERIOD    2   TIME STEP 2463
 
 SOLVING FOR HEAD 

 NO OUTPUT CONTROL FOR STRESS PERIOD    2   TIME STEP 2464
 
 SOLVING FOR HEAD 

 NO OUTPUT CONTROL FOR STRESS PERIOD    2   TIME STEP 2465
 
 SOLVING FOR HEAD 

 NO OUTPUT CONTROL FOR STRESS PERIOD    2   TIME STEP 2466
 
 SOLVING FOR HEAD 

 NO OUTPUT CONTROL FOR STRESS PERIOD    2   TIME STEP 2467
 
 SOLVING FOR HEAD 

 NO OUTPUT CONTROL FOR STRESS PERIOD    2   TIME STEP 2468
 
 SOLVING FOR HEAD 

 NO OUTPUT CONTROL FOR STRESS PERIOD    2   TIME STEP 2469
 
 SOLVING FOR HEAD 

 NO OUTPUT CONTROL FOR STRESS PERIOD    2   TIME STEP 2470
 
 SOLVING FOR HEAD 

 NO OUTPUT CONTROL FOR STRESS PERIOD    2   TIME STEP 2471
 
 SOLVING FOR HEAD 

 NO OUTPUT CONTROL FOR STRESS PERIOD    2   TIME STEP 2472
 
 SOLVING FOR HEAD 

 NO OUTPUT CONTROL FOR STRESS PERIOD    2   TIME STEP 2473
 
 SOLVING FOR HEAD 

 NO OUTPUT CONTROL FOR STRESS PERIOD    2   TIME STEP 2474
 
 SOLVING FOR HEAD 

 NO OUTPUT CONTROL FOR STRESS PERIOD    2   TIME STEP 2475
 
 SOLVING FOR HEAD 

 NO OUTPUT CONTROL FOR STRESS PERIOD    2   TIME STEP 2476
 
 SOLVING FOR HEAD 

 NO OUTPUT CONTROL FOR STRESS PERIOD    2   TIME STEP 2477
 
 SOLVING FOR HEAD 

 NO OUTPUT CONTROL FOR STRESS PERIOD    2   TIME STEP 2478
 
 SOLVING FOR HEAD 

 NO OUTPUT CONTROL FOR STRESS PERIOD    2   TIME STEP 2479
 
 SOLVING FOR HEAD 

 NO OUTPUT CONTROL FOR STRESS PERIOD    2   TIME STEP 2480
 
 SOLVING FOR HEAD 

 NO OUTPUT CONTROL FOR STRESS PERIOD    2   TIME STEP 2481
 
 SOLVING FOR HEAD 

 NO OUTPUT CONTROL FOR STRESS PERIOD    2   TIME STEP 2482
 
 SOLVING FOR HEAD 

 NO OUTPUT CONTROL FOR STRESS PERIOD    2   TIME STEP 2483
 
 SOLVING FOR HEAD 

 NO OUTPUT CONTROL FOR STRESS PERIOD    2   TIME STEP 2484
 
 SOLVING FOR HEAD 

 NO OUTPUT CONTROL FOR STRESS PERIOD    2   TIME STEP 2485
 
 SOLVING FOR HEAD 

 NO OUTPUT CONTROL FOR STRESS PERIOD    2   TIME STEP 2486
 
 SOLVING FOR HEAD 

 NO OUTPUT CONTROL FOR STRESS PERIOD    2   TIME STEP 2487
 
 SOLVING FOR HEAD 

 NO OUTPUT CONTROL FOR STRESS PERIOD    2   TIME STEP 2488
 
 SOLVING FOR HEAD 

 NO OUTPUT CONTROL FOR STRESS PERIOD    2   TIME STEP 2489
 
 SOLVING FOR HEAD 

 NO OUTPUT CONTROL FOR STRESS PERIOD    2   TIME STEP 2490
 
 SOLVING FOR HEAD 

 NO OUTPUT CONTROL FOR STRESS PERIOD    2   TIME STEP 2491
 
 SOLVING FOR HEAD 

 NO OUTPUT CONTROL FOR STRESS PERIOD    2   TIME STEP 2492
 
 SOLVING FOR HEAD 

 NO OUTPUT CONTROL FOR STRESS PERIOD    2   TIME STEP 2493
 
 SOLVING FOR HEAD 

 NO OUTPUT CONTROL FOR STRESS PERIOD    2   TIME STEP 2494
 
 SOLVING FOR HEAD 

 NO OUTPUT CONTROL FOR STRESS PERIOD    2   TIME STEP 2495
 
 SOLVING FOR HEAD 

 NO OUTPUT CONTROL FOR STRESS PERIOD    2   TIME STEP 2496
 
 SOLVING FOR HEAD 

 NO OUTPUT CONTROL FOR STRESS PERIOD    2   TIME STEP 2497
 
 SOLVING FOR HEAD 

 NO OUTPUT CONTROL FOR STRESS PERIOD    2   TIME STEP 2498
 
 SOLVING FOR HEAD 

 NO OUTPUT CONTROL FOR STRESS PERIOD    2   TIME STEP 2499
 
 SOLVING FOR HEAD 

 NO OUTPUT CONTROL FOR STRESS PERIOD    2   TIME STEP 2500
 
 SOLVING FOR HEAD 

 NO OUTPUT CONTROL FOR STRESS PERIOD    2   TIME STEP 2501
 
 SOLVING FOR HEAD 

 NO OUTPUT CONTROL FOR STRESS PERIOD    2   TIME STEP 2502
 
 SOLVING FOR HEAD 

 NO OUTPUT CONTROL FOR STRESS PERIOD    2   TIME STEP 2503
 
 SOLVING FOR HEAD 

 NO OUTPUT CONTROL FOR STRESS PERIOD    2   TIME STEP 2504
 
 SOLVING FOR HEAD 

 NO OUTPUT CONTROL FOR STRESS PERIOD    2   TIME STEP 2505
 
 SOLVING FOR HEAD 

 NO OUTPUT CONTROL FOR STRESS PERIOD    2   TIME STEP 2506
 
 SOLVING FOR HEAD 

 NO OUTPUT CONTROL FOR STRESS PERIOD    2   TIME STEP 2507
 
 SOLVING FOR HEAD 

 NO OUTPUT CONTROL FOR STRESS PERIOD    2   TIME STEP 2508
 
 SOLVING FOR HEAD 

 NO OUTPUT CONTROL FOR STRESS PERIOD    2   TIME STEP 2509
 
 SOLVING FOR HEAD 

 NO OUTPUT CONTROL FOR STRESS PERIOD    2   TIME STEP 2510
 
 SOLVING FOR HEAD 

 NO OUTPUT CONTROL FOR STRESS PERIOD    2   TIME STEP 2511
 
 SOLVING FOR HEAD 

 NO OUTPUT CONTROL FOR STRESS PERIOD    2   TIME STEP 2512
 
 SOLVING FOR HEAD 

 NO OUTPUT CONTROL FOR STRESS PERIOD    2   TIME STEP 2513
 
 SOLVING FOR HEAD 

 NO OUTPUT CONTROL FOR STRESS PERIOD    2   TIME STEP 2514
 
 SOLVING FOR HEAD 

 NO OUTPUT CONTROL FOR STRESS PERIOD    2   TIME STEP 2515
 
 SOLVING FOR HEAD 

 NO OUTPUT CONTROL FOR STRESS PERIOD    2   TIME STEP 2516
 
 SOLVING FOR HEAD 

 NO OUTPUT CONTROL FOR STRESS PERIOD    2   TIME STEP 2517
 
 SOLVING FOR HEAD 

 NO OUTPUT CONTROL FOR STRESS PERIOD    2   TIME STEP 2518
 
 SOLVING FOR HEAD 

 NO OUTPUT CONTROL FOR STRESS PERIOD    2   TIME STEP 2519
 
 SOLVING FOR HEAD 

 NO OUTPUT CONTROL FOR STRESS PERIOD    2   TIME STEP 2520
 
 SOLVING FOR HEAD 

 NO OUTPUT CONTROL FOR STRESS PERIOD    2   TIME STEP 2521
 
 SOLVING FOR HEAD 

 NO OUTPUT CONTROL FOR STRESS PERIOD    2   TIME STEP 2522
 
 SOLVING FOR HEAD 

 NO OUTPUT CONTROL FOR STRESS PERIOD    2   TIME STEP 2523
 
 SOLVING FOR HEAD 

 NO OUTPUT CONTROL FOR STRESS PERIOD    2   TIME STEP 2524
 
 SOLVING FOR HEAD 

 NO OUTPUT CONTROL FOR STRESS PERIOD    2   TIME STEP 2525
 
 SOLVING FOR HEAD 

 NO OUTPUT CONTROL FOR STRESS PERIOD    2   TIME STEP 2526
 
 SOLVING FOR HEAD 

 NO OUTPUT CONTROL FOR STRESS PERIOD    2   TIME STEP 2527
 
 SOLVING FOR HEAD 

 NO OUTPUT CONTROL FOR STRESS PERIOD    2   TIME STEP 2528
 
 SOLVING FOR HEAD 

 NO OUTPUT CONTROL FOR STRESS PERIOD    2   TIME STEP 2529
 
 SOLVING FOR HEAD 

 NO OUTPUT CONTROL FOR STRESS PERIOD    2   TIME STEP 2530
 
 SOLVING FOR HEAD 

 NO OUTPUT CONTROL FOR STRESS PERIOD    2   TIME STEP 2531
 
 SOLVING FOR HEAD 

 NO OUTPUT CONTROL FOR STRESS PERIOD    2   TIME STEP 2532
 
 SOLVING FOR HEAD 

 NO OUTPUT CONTROL FOR STRESS PERIOD    2   TIME STEP 2533
 
 SOLVING FOR HEAD 

 NO OUTPUT CONTROL FOR STRESS PERIOD    2   TIME STEP 2534
 
 SOLVING FOR HEAD 

 NO OUTPUT CONTROL FOR STRESS PERIOD    2   TIME STEP 2535
 
 SOLVING FOR HEAD 

 NO OUTPUT CONTROL FOR STRESS PERIOD    2   TIME STEP 2536
 
 SOLVING FOR HEAD 

 NO OUTPUT CONTROL FOR STRESS PERIOD    2   TIME STEP 2537
 
 SOLVING FOR HEAD 

 NO OUTPUT CONTROL FOR STRESS PERIOD    2   TIME STEP 2538
 
 SOLVING FOR HEAD 

 NO OUTPUT CONTROL FOR STRESS PERIOD    2   TIME STEP 2539
 
 SOLVING FOR HEAD 

 NO OUTPUT CONTROL FOR STRESS PERIOD    2   TIME STEP 2540
 
 SOLVING FOR HEAD 

 NO OUTPUT CONTROL FOR STRESS PERIOD    2   TIME STEP 2541
 
 SOLVING FOR HEAD 

 NO OUTPUT CONTROL FOR STRESS PERIOD    2   TIME STEP 2542
 
 SOLVING FOR HEAD 

 NO OUTPUT CONTROL FOR STRESS PERIOD    2   TIME STEP 2543
 
 SOLVING FOR HEAD 

 NO OUTPUT CONTROL FOR STRESS PERIOD    2   TIME STEP 2544
 
 SOLVING FOR HEAD 

 NO OUTPUT CONTROL FOR STRESS PERIOD    2   TIME STEP 2545
 
 SOLVING FOR HEAD 

 NO OUTPUT CONTROL FOR STRESS PERIOD    2   TIME STEP 2546
 
 SOLVING FOR HEAD 

 NO OUTPUT CONTROL FOR STRESS PERIOD    2   TIME STEP 2547
 
 SOLVING FOR HEAD 

 NO OUTPUT CONTROL FOR STRESS PERIOD    2   TIME STEP 2548
 
 SOLVING FOR HEAD 

 NO OUTPUT CONTROL FOR STRESS PERIOD    2   TIME STEP 2549
 
 SOLVING FOR HEAD 

 NO OUTPUT CONTROL FOR STRESS PERIOD    2   TIME STEP 2550
 
 SOLVING FOR HEAD 

 NO OUTPUT CONTROL FOR STRESS PERIOD    2   TIME STEP 2551
 
 SOLVING FOR HEAD 

 NO OUTPUT CONTROL FOR STRESS PERIOD    2   TIME STEP 2552
 
 SOLVING FOR HEAD 

 NO OUTPUT CONTROL FOR STRESS PERIOD    2   TIME STEP 2553
 
 SOLVING FOR HEAD 

 NO OUTPUT CONTROL FOR STRESS PERIOD    2   TIME STEP 2554
 
 SOLVING FOR HEAD 

 NO OUTPUT CONTROL FOR STRESS PERIOD    2   TIME STEP 2555
 
 SOLVING FOR HEAD 

 NO OUTPUT CONTROL FOR STRESS PERIOD    2   TIME STEP 2556
 
 SOLVING FOR HEAD 

 NO OUTPUT CONTROL FOR STRESS PERIOD    2   TIME STEP 2557
 
 SOLVING FOR HEAD 

 NO OUTPUT CONTROL FOR STRESS PERIOD    2   TIME STEP 2558
 
 SOLVING FOR HEAD 

 NO OUTPUT CONTROL FOR STRESS PERIOD    2   TIME STEP 2559
 
 SOLVING FOR HEAD 

 NO OUTPUT CONTROL FOR STRESS PERIOD    2   TIME STEP 2560
 
 SOLVING FOR HEAD 

 NO OUTPUT CONTROL FOR STRESS PERIOD    2   TIME STEP 2561
 
 SOLVING FOR HEAD 

 NO OUTPUT CONTROL FOR STRESS PERIOD    2   TIME STEP 2562
 
 SOLVING FOR HEAD 

 NO OUTPUT CONTROL FOR STRESS PERIOD    2   TIME STEP 2563
 
 SOLVING FOR HEAD 

 NO OUTPUT CONTROL FOR STRESS PERIOD    2   TIME STEP 2564
 
 SOLVING FOR HEAD 

 NO OUTPUT CONTROL FOR STRESS PERIOD    2   TIME STEP 2565
 
 SOLVING FOR HEAD 

 NO OUTPUT CONTROL FOR STRESS PERIOD    2   TIME STEP 2566
 
 SOLVING FOR HEAD 

 NO OUTPUT CONTROL FOR STRESS PERIOD    2   TIME STEP 2567
 
 SOLVING FOR HEAD 

 NO OUTPUT CONTROL FOR STRESS PERIOD    2   TIME STEP 2568
 
 SOLVING FOR HEAD 

 NO OUTPUT CONTROL FOR STRESS PERIOD    2   TIME STEP 2569
 
 SOLVING FOR HEAD 

 NO OUTPUT CONTROL FOR STRESS PERIOD    2   TIME STEP 2570
 
 SOLVING FOR HEAD 

 NO OUTPUT CONTROL FOR STRESS PERIOD    2   TIME STEP 2571
 
 SOLVING FOR HEAD 

 NO OUTPUT CONTROL FOR STRESS PERIOD    2   TIME STEP 2572
 
 SOLVING FOR HEAD 

 NO OUTPUT CONTROL FOR STRESS PERIOD    2   TIME STEP 2573
 
 SOLVING FOR HEAD 

 NO OUTPUT CONTROL FOR STRESS PERIOD    2   TIME STEP 2574
 
 SOLVING FOR HEAD 

 NO OUTPUT CONTROL FOR STRESS PERIOD    2   TIME STEP 2575
 
 SOLVING FOR HEAD 

 NO OUTPUT CONTROL FOR STRESS PERIOD    2   TIME STEP 2576
 
 SOLVING FOR HEAD 

 NO OUTPUT CONTROL FOR STRESS PERIOD    2   TIME STEP 2577
 
 SOLVING FOR HEAD 

 NO OUTPUT CONTROL FOR STRESS PERIOD    2   TIME STEP 2578
 
 SOLVING FOR HEAD 

 NO OUTPUT CONTROL FOR STRESS PERIOD    2   TIME STEP 2579
 
 SOLVING FOR HEAD 

 NO OUTPUT CONTROL FOR STRESS PERIOD    2   TIME STEP 2580
 
 SOLVING FOR HEAD 

 NO OUTPUT CONTROL FOR STRESS PERIOD    2   TIME STEP 2581
 
 SOLVING FOR HEAD 

 NO OUTPUT CONTROL FOR STRESS PERIOD    2   TIME STEP 2582
 
 SOLVING FOR HEAD 

 NO OUTPUT CONTROL FOR STRESS PERIOD    2   TIME STEP 2583
 
 SOLVING FOR HEAD 

 NO OUTPUT CONTROL FOR STRESS PERIOD    2   TIME STEP 2584
 
 SOLVING FOR HEAD 

 NO OUTPUT CONTROL FOR STRESS PERIOD    2   TIME STEP 2585
 
 SOLVING FOR HEAD 

 NO OUTPUT CONTROL FOR STRESS PERIOD    2   TIME STEP 2586
 
 SOLVING FOR HEAD 

 NO OUTPUT CONTROL FOR STRESS PERIOD    2   TIME STEP 2587
 
 SOLVING FOR HEAD 

 NO OUTPUT CONTROL FOR STRESS PERIOD    2   TIME STEP 2588
 
 SOLVING FOR HEAD 

 NO OUTPUT CONTROL FOR STRESS PERIOD    2   TIME STEP 2589
 
 SOLVING FOR HEAD 

 NO OUTPUT CONTROL FOR STRESS PERIOD    2   TIME STEP 2590
 
 SOLVING FOR HEAD 

 NO OUTPUT CONTROL FOR STRESS PERIOD    2   TIME STEP 2591
 
 SOLVING FOR HEAD 

 NO OUTPUT CONTROL FOR STRESS PERIOD    2   TIME STEP 2592
 
 SOLVING FOR HEAD 

 NO OUTPUT CONTROL FOR STRESS PERIOD    2   TIME STEP 2593
 
 SOLVING FOR HEAD 

 NO OUTPUT CONTROL FOR STRESS PERIOD    2   TIME STEP 2594
 
 SOLVING FOR HEAD 

 NO OUTPUT CONTROL FOR STRESS PERIOD    2   TIME STEP 2595
 
 SOLVING FOR HEAD 

 NO OUTPUT CONTROL FOR STRESS PERIOD    2   TIME STEP 2596
 
 SOLVING FOR HEAD 

 NO OUTPUT CONTROL FOR STRESS PERIOD    2   TIME STEP 2597
 
 SOLVING FOR HEAD 

 NO OUTPUT CONTROL FOR STRESS PERIOD    2   TIME STEP 2598
 
 SOLVING FOR HEAD 

 NO OUTPUT CONTROL FOR STRESS PERIOD    2   TIME STEP 2599
 
 SOLVING FOR HEAD 

 NO OUTPUT CONTROL FOR STRESS PERIOD    2   TIME STEP 2600
 
 SOLVING FOR HEAD 

 NO OUTPUT CONTROL FOR STRESS PERIOD    2   TIME STEP 2601
 
 SOLVING FOR HEAD 

 NO OUTPUT CONTROL FOR STRESS PERIOD    2   TIME STEP 2602
 
 SOLVING FOR HEAD 

 NO OUTPUT CONTROL FOR STRESS PERIOD    2   TIME STEP 2603
 
 SOLVING FOR HEAD 

 NO OUTPUT CONTROL FOR STRESS PERIOD    2   TIME STEP 2604
 
 SOLVING FOR HEAD 

 NO OUTPUT CONTROL FOR STRESS PERIOD    2   TIME STEP 2605
 
 SOLVING FOR HEAD 

 NO OUTPUT CONTROL FOR STRESS PERIOD    2   TIME STEP 2606
 
 SOLVING FOR HEAD 

 NO OUTPUT CONTROL FOR STRESS PERIOD    2   TIME STEP 2607
 
 SOLVING FOR HEAD 

 NO OUTPUT CONTROL FOR STRESS PERIOD    2   TIME STEP 2608
 
 SOLVING FOR HEAD 

 NO OUTPUT CONTROL FOR STRESS PERIOD    2   TIME STEP 2609
 
 SOLVING FOR HEAD 

 NO OUTPUT CONTROL FOR STRESS PERIOD    2   TIME STEP 2610
 
 SOLVING FOR HEAD 

 NO OUTPUT CONTROL FOR STRESS PERIOD    2   TIME STEP 2611
 
 SOLVING FOR HEAD 

 NO OUTPUT CONTROL FOR STRESS PERIOD    2   TIME STEP 2612
 
 SOLVING FOR HEAD 

 NO OUTPUT CONTROL FOR STRESS PERIOD    2   TIME STEP 2613
 
 SOLVING FOR HEAD 

 NO OUTPUT CONTROL FOR STRESS PERIOD    2   TIME STEP 2614
 
 SOLVING FOR HEAD 

 NO OUTPUT CONTROL FOR STRESS PERIOD    2   TIME STEP 2615
 
 SOLVING FOR HEAD 

 NO OUTPUT CONTROL FOR STRESS PERIOD    2   TIME STEP 2616
 
 SOLVING FOR HEAD 

 NO OUTPUT CONTROL FOR STRESS PERIOD    2   TIME STEP 2617
 
 SOLVING FOR HEAD 

 NO OUTPUT CONTROL FOR STRESS PERIOD    2   TIME STEP 2618
 
 SOLVING FOR HEAD 

 NO OUTPUT CONTROL FOR STRESS PERIOD    2   TIME STEP 2619
 
 SOLVING FOR HEAD 

 NO OUTPUT CONTROL FOR STRESS PERIOD    2   TIME STEP 2620
 
 SOLVING FOR HEAD 

 NO OUTPUT CONTROL FOR STRESS PERIOD    2   TIME STEP 2621
 
 SOLVING FOR HEAD 

 NO OUTPUT CONTROL FOR STRESS PERIOD    2   TIME STEP 2622
 
 SOLVING FOR HEAD 

 NO OUTPUT CONTROL FOR STRESS PERIOD    2   TIME STEP 2623
 
 SOLVING FOR HEAD 

 NO OUTPUT CONTROL FOR STRESS PERIOD    2   TIME STEP 2624
 
 SOLVING FOR HEAD 

 NO OUTPUT CONTROL FOR STRESS PERIOD    2   TIME STEP 2625
 
 SOLVING FOR HEAD 

 NO OUTPUT CONTROL FOR STRESS PERIOD    2   TIME STEP 2626
 
 SOLVING FOR HEAD 

 NO OUTPUT CONTROL FOR STRESS PERIOD    2   TIME STEP 2627
 
 SOLVING FOR HEAD 

 NO OUTPUT CONTROL FOR STRESS PERIOD    2   TIME STEP 2628
 
 SOLVING FOR HEAD 

 NO OUTPUT CONTROL FOR STRESS PERIOD    2   TIME STEP 2629
 
 SOLVING FOR HEAD 

 NO OUTPUT CONTROL FOR STRESS PERIOD    2   TIME STEP 2630
 
 SOLVING FOR HEAD 

 NO OUTPUT CONTROL FOR STRESS PERIOD    2   TIME STEP 2631
 
 SOLVING FOR HEAD 

 NO OUTPUT CONTROL FOR STRESS PERIOD    2   TIME STEP 2632
 
 SOLVING FOR HEAD 

 NO OUTPUT CONTROL FOR STRESS PERIOD    2   TIME STEP 2633
 
 SOLVING FOR HEAD 

 NO OUTPUT CONTROL FOR STRESS PERIOD    2   TIME STEP 2634
 
 SOLVING FOR HEAD 

 NO OUTPUT CONTROL FOR STRESS PERIOD    2   TIME STEP 2635
 
 SOLVING FOR HEAD 

 NO OUTPUT CONTROL FOR STRESS PERIOD    2   TIME STEP 2636
 
 SOLVING FOR HEAD 

 NO OUTPUT CONTROL FOR STRESS PERIOD    2   TIME STEP 2637
 
 SOLVING FOR HEAD 

 NO OUTPUT CONTROL FOR STRESS PERIOD    2   TIME STEP 2638
 
 SOLVING FOR HEAD 

 NO OUTPUT CONTROL FOR STRESS PERIOD    2   TIME STEP 2639
 
 SOLVING FOR HEAD 

 NO OUTPUT CONTROL FOR STRESS PERIOD    2   TIME STEP 2640
 
 SOLVING FOR HEAD 

 NO OUTPUT CONTROL FOR STRESS PERIOD    2   TIME STEP 2641
 
 SOLVING FOR HEAD 

 NO OUTPUT CONTROL FOR STRESS PERIOD    2   TIME STEP 2642
 
 SOLVING FOR HEAD 

 NO OUTPUT CONTROL FOR STRESS PERIOD    2   TIME STEP 2643
 
 SOLVING FOR HEAD 

 NO OUTPUT CONTROL FOR STRESS PERIOD    2   TIME STEP 2644
 
 SOLVING FOR HEAD 

 NO OUTPUT CONTROL FOR STRESS PERIOD    2   TIME STEP 2645
 
 SOLVING FOR HEAD 

 NO OUTPUT CONTROL FOR STRESS PERIOD    2   TIME STEP 2646
 
 SOLVING FOR HEAD 

 NO OUTPUT CONTROL FOR STRESS PERIOD    2   TIME STEP 2647
 
 SOLVING FOR HEAD 

 NO OUTPUT CONTROL FOR STRESS PERIOD    2   TIME STEP 2648
 
 SOLVING FOR HEAD 

 NO OUTPUT CONTROL FOR STRESS PERIOD    2   TIME STEP 2649
 
 SOLVING FOR HEAD 

 NO OUTPUT CONTROL FOR STRESS PERIOD    2   TIME STEP 2650
 
 SOLVING FOR HEAD 

 NO OUTPUT CONTROL FOR STRESS PERIOD    2   TIME STEP 2651
 
 SOLVING FOR HEAD 

 NO OUTPUT CONTROL FOR STRESS PERIOD    2   TIME STEP 2652
 
 SOLVING FOR HEAD 

 NO OUTPUT CONTROL FOR STRESS PERIOD    2   TIME STEP 2653
 
 SOLVING FOR HEAD 

 NO OUTPUT CONTROL FOR STRESS PERIOD    2   TIME STEP 2654
 
 SOLVING FOR HEAD 

 NO OUTPUT CONTROL FOR STRESS PERIOD    2   TIME STEP 2655
 
 SOLVING FOR HEAD 

 NO OUTPUT CONTROL FOR STRESS PERIOD    2   TIME STEP 2656
 
 SOLVING FOR HEAD 

 NO OUTPUT CONTROL FOR STRESS PERIOD    2   TIME STEP 2657
 
 SOLVING FOR HEAD 

 NO OUTPUT CONTROL FOR STRESS PERIOD    2   TIME STEP 2658
 
 SOLVING FOR HEAD 

 NO OUTPUT CONTROL FOR STRESS PERIOD    2   TIME STEP 2659
 
 SOLVING FOR HEAD 

 NO OUTPUT CONTROL FOR STRESS PERIOD    2   TIME STEP 2660
 
 SOLVING FOR HEAD 

 NO OUTPUT CONTROL FOR STRESS PERIOD    2   TIME STEP 2661
 
 SOLVING FOR HEAD 

 NO OUTPUT CONTROL FOR STRESS PERIOD    2   TIME STEP 2662
 
 SOLVING FOR HEAD 

 NO OUTPUT CONTROL FOR STRESS PERIOD    2   TIME STEP 2663
 
 SOLVING FOR HEAD 

 NO OUTPUT CONTROL FOR STRESS PERIOD    2   TIME STEP 2664
 
 SOLVING FOR HEAD 

 NO OUTPUT CONTROL FOR STRESS PERIOD    2   TIME STEP 2665
 
 SOLVING FOR HEAD 

 NO OUTPUT CONTROL FOR STRESS PERIOD    2   TIME STEP 2666
 
 SOLVING FOR HEAD 

 NO OUTPUT CONTROL FOR STRESS PERIOD    2   TIME STEP 2667
 
 SOLVING FOR HEAD 

 NO OUTPUT CONTROL FOR STRESS PERIOD    2   TIME STEP 2668
 
 SOLVING FOR HEAD 

 NO OUTPUT CONTROL FOR STRESS PERIOD    2   TIME STEP 2669
 
 SOLVING FOR HEAD 

 NO OUTPUT CONTROL FOR STRESS PERIOD    2   TIME STEP 2670
 
 SOLVING FOR HEAD 

 NO OUTPUT CONTROL FOR STRESS PERIOD    2   TIME STEP 2671
 
 SOLVING FOR HEAD 

 NO OUTPUT CONTROL FOR STRESS PERIOD    2   TIME STEP 2672
 
 SOLVING FOR HEAD 

 NO OUTPUT CONTROL FOR STRESS PERIOD    2   TIME STEP 2673
 
 SOLVING FOR HEAD 

 NO OUTPUT CONTROL FOR STRESS PERIOD    2   TIME STEP 2674
 
 SOLVING FOR HEAD 

 NO OUTPUT CONTROL FOR STRESS PERIOD    2   TIME STEP 2675
 
 SOLVING FOR HEAD 

 NO OUTPUT CONTROL FOR STRESS PERIOD    2   TIME STEP 2676
 
 SOLVING FOR HEAD 

 NO OUTPUT CONTROL FOR STRESS PERIOD    2   TIME STEP 2677
 
 SOLVING FOR HEAD 

 NO OUTPUT CONTROL FOR STRESS PERIOD    2   TIME STEP 2678
 
 SOLVING FOR HEAD 

 NO OUTPUT CONTROL FOR STRESS PERIOD    2   TIME STEP 2679
 
 SOLVING FOR HEAD 

 NO OUTPUT CONTROL FOR STRESS PERIOD    2   TIME STEP 2680
 
 SOLVING FOR HEAD 

 NO OUTPUT CONTROL FOR STRESS PERIOD    2   TIME STEP 2681
 
 SOLVING FOR HEAD 

 NO OUTPUT CONTROL FOR STRESS PERIOD    2   TIME STEP 2682
 
 SOLVING FOR HEAD 

 NO OUTPUT CONTROL FOR STRESS PERIOD    2   TIME STEP 2683
 
 SOLVING FOR HEAD 

 NO OUTPUT CONTROL FOR STRESS PERIOD    2   TIME STEP 2684
 
 SOLVING FOR HEAD 

 NO OUTPUT CONTROL FOR STRESS PERIOD    2   TIME STEP 2685
 
 SOLVING FOR HEAD 

 NO OUTPUT CONTROL FOR STRESS PERIOD    2   TIME STEP 2686
 
 SOLVING FOR HEAD 

 NO OUTPUT CONTROL FOR STRESS PERIOD    2   TIME STEP 2687
 
 SOLVING FOR HEAD 

 NO OUTPUT CONTROL FOR STRESS PERIOD    2   TIME STEP 2688
 
 SOLVING FOR HEAD 

 NO OUTPUT CONTROL FOR STRESS PERIOD    2   TIME STEP 2689
 
 SOLVING FOR HEAD 

 NO OUTPUT CONTROL FOR STRESS PERIOD    2   TIME STEP 2690
 
 SOLVING FOR HEAD 

 NO OUTPUT CONTROL FOR STRESS PERIOD    2   TIME STEP 2691
 
 SOLVING FOR HEAD 

 NO OUTPUT CONTROL FOR STRESS PERIOD    2   TIME STEP 2692
 
 SOLVING FOR HEAD 

 NO OUTPUT CONTROL FOR STRESS PERIOD    2   TIME STEP 2693
 
 SOLVING FOR HEAD 

 NO OUTPUT CONTROL FOR STRESS PERIOD    2   TIME STEP 2694
 
 SOLVING FOR HEAD 

 NO OUTPUT CONTROL FOR STRESS PERIOD    2   TIME STEP 2695
 
 SOLVING FOR HEAD 

 NO OUTPUT CONTROL FOR STRESS PERIOD    2   TIME STEP 2696
 
 SOLVING FOR HEAD 

 NO OUTPUT CONTROL FOR STRESS PERIOD    2   TIME STEP 2697
 
 SOLVING FOR HEAD 

 NO OUTPUT CONTROL FOR STRESS PERIOD    2   TIME STEP 2698
 
 SOLVING FOR HEAD 

 NO OUTPUT CONTROL FOR STRESS PERIOD    2   TIME STEP 2699
 
 SOLVING FOR HEAD 

 NO OUTPUT CONTROL FOR STRESS PERIOD    2   TIME STEP 2700
 
 SOLVING FOR HEAD 

 NO OUTPUT CONTROL FOR STRESS PERIOD    2   TIME STEP 2701
 
 SOLVING FOR HEAD 

 NO OUTPUT CONTROL FOR STRESS PERIOD    2   TIME STEP 2702
 
 SOLVING FOR HEAD 

 NO OUTPUT CONTROL FOR STRESS PERIOD    2   TIME STEP 2703
 
 SOLVING FOR HEAD 

 NO OUTPUT CONTROL FOR STRESS PERIOD    2   TIME STEP 2704
 
 SOLVING FOR HEAD 

 NO OUTPUT CONTROL FOR STRESS PERIOD    2   TIME STEP 2705
 
 SOLVING FOR HEAD 

 NO OUTPUT CONTROL FOR STRESS PERIOD    2   TIME STEP 2706
 
 SOLVING FOR HEAD 

 NO OUTPUT CONTROL FOR STRESS PERIOD    2   TIME STEP 2707
 
 SOLVING FOR HEAD 

 NO OUTPUT CONTROL FOR STRESS PERIOD    2   TIME STEP 2708
 
 SOLVING FOR HEAD 

 NO OUTPUT CONTROL FOR STRESS PERIOD    2   TIME STEP 2709
 
 SOLVING FOR HEAD 

 NO OUTPUT CONTROL FOR STRESS PERIOD    2   TIME STEP 2710
 
 SOLVING FOR HEAD 

 NO OUTPUT CONTROL FOR STRESS PERIOD    2   TIME STEP 2711
 
 SOLVING FOR HEAD 

 NO OUTPUT CONTROL FOR STRESS PERIOD    2   TIME STEP 2712
 
 SOLVING FOR HEAD 

 NO OUTPUT CONTROL FOR STRESS PERIOD    2   TIME STEP 2713
 
 SOLVING FOR HEAD 

 NO OUTPUT CONTROL FOR STRESS PERIOD    2   TIME STEP 2714
 
 SOLVING FOR HEAD 

 NO OUTPUT CONTROL FOR STRESS PERIOD    2   TIME STEP 2715
 
 SOLVING FOR HEAD 

 NO OUTPUT CONTROL FOR STRESS PERIOD    2   TIME STEP 2716
 
 SOLVING FOR HEAD 

 NO OUTPUT CONTROL FOR STRESS PERIOD    2   TIME STEP 2717
 
 SOLVING FOR HEAD 

 NO OUTPUT CONTROL FOR STRESS PERIOD    2   TIME STEP 2718
 
 SOLVING FOR HEAD 

 NO OUTPUT CONTROL FOR STRESS PERIOD    2   TIME STEP 2719
 
 SOLVING FOR HEAD 

 NO OUTPUT CONTROL FOR STRESS PERIOD    2   TIME STEP 2720
 
 SOLVING FOR HEAD 

 NO OUTPUT CONTROL FOR STRESS PERIOD    2   TIME STEP 2721
 
 SOLVING FOR HEAD 

 NO OUTPUT CONTROL FOR STRESS PERIOD    2   TIME STEP 2722
 
 SOLVING FOR HEAD 

 NO OUTPUT CONTROL FOR STRESS PERIOD    2   TIME STEP 2723
 
 SOLVING FOR HEAD 

 NO OUTPUT CONTROL FOR STRESS PERIOD    2   TIME STEP 2724
 
 SOLVING FOR HEAD 

 NO OUTPUT CONTROL FOR STRESS PERIOD    2   TIME STEP 2725
 
 SOLVING FOR HEAD 

 NO OUTPUT CONTROL FOR STRESS PERIOD    2   TIME STEP 2726
 
 SOLVING FOR HEAD 

 NO OUTPUT CONTROL FOR STRESS PERIOD    2   TIME STEP 2727
 
 SOLVING FOR HEAD 

 NO OUTPUT CONTROL FOR STRESS PERIOD    2   TIME STEP 2728
 
 SOLVING FOR HEAD 

 NO OUTPUT CONTROL FOR STRESS PERIOD    2   TIME STEP 2729
 
 SOLVING FOR HEAD 

 NO OUTPUT CONTROL FOR STRESS PERIOD    2   TIME STEP 2730
 
 SOLVING FOR HEAD 

 NO OUTPUT CONTROL FOR STRESS PERIOD    2   TIME STEP 2731
 
 SOLVING FOR HEAD 

 NO OUTPUT CONTROL FOR STRESS PERIOD    2   TIME STEP 2732
 
 SOLVING FOR HEAD 

 NO OUTPUT CONTROL FOR STRESS PERIOD    2   TIME STEP 2733
 
 SOLVING FOR HEAD 

 NO OUTPUT CONTROL FOR STRESS PERIOD    2   TIME STEP 2734
 
 SOLVING FOR HEAD 

 NO OUTPUT CONTROL FOR STRESS PERIOD    2   TIME STEP 2735
 
 SOLVING FOR HEAD 

 NO OUTPUT CONTROL FOR STRESS PERIOD    2   TIME STEP 2736
 
 SOLVING FOR HEAD 

 NO OUTPUT CONTROL FOR STRESS PERIOD    2   TIME STEP 2737
 
 SOLVING FOR HEAD 

 NO OUTPUT CONTROL FOR STRESS PERIOD    2   TIME STEP 2738
 
 SOLVING FOR HEAD 

 NO OUTPUT CONTROL FOR STRESS PERIOD    2   TIME STEP 2739
 
 SOLVING FOR HEAD 

 NO OUTPUT CONTROL FOR STRESS PERIOD    2   TIME STEP 2740
 
 SOLVING FOR HEAD 

 NO OUTPUT CONTROL FOR STRESS PERIOD    2   TIME STEP 2741
 
 SOLVING FOR HEAD 

 NO OUTPUT CONTROL FOR STRESS PERIOD    2   TIME STEP 2742
 
 SOLVING FOR HEAD 

 NO OUTPUT CONTROL FOR STRESS PERIOD    2   TIME STEP 2743
 
 SOLVING FOR HEAD 

 NO OUTPUT CONTROL FOR STRESS PERIOD    2   TIME STEP 2744
 
 SOLVING FOR HEAD 

 NO OUTPUT CONTROL FOR STRESS PERIOD    2   TIME STEP 2745
 
 SOLVING FOR HEAD 

 NO OUTPUT CONTROL FOR STRESS PERIOD    2   TIME STEP 2746
 
 SOLVING FOR HEAD 

 NO OUTPUT CONTROL FOR STRESS PERIOD    2   TIME STEP 2747
 
 SOLVING FOR HEAD 

 NO OUTPUT CONTROL FOR STRESS PERIOD    2   TIME STEP 2748
 
 SOLVING FOR HEAD 

 NO OUTPUT CONTROL FOR STRESS PERIOD    2   TIME STEP 2749
 
 SOLVING FOR HEAD 

 NO OUTPUT CONTROL FOR STRESS PERIOD    2   TIME STEP 2750
 
 SOLVING FOR HEAD 

 NO OUTPUT CONTROL FOR STRESS PERIOD    2   TIME STEP 2751
 
 SOLVING FOR HEAD 

 NO OUTPUT CONTROL FOR STRESS PERIOD    2   TIME STEP 2752
 
 SOLVING FOR HEAD 

 NO OUTPUT CONTROL FOR STRESS PERIOD    2   TIME STEP 2753
 
 SOLVING FOR HEAD 

 NO OUTPUT CONTROL FOR STRESS PERIOD    2   TIME STEP 2754
 
 SOLVING FOR HEAD 

 NO OUTPUT CONTROL FOR STRESS PERIOD    2   TIME STEP 2755
 
 SOLVING FOR HEAD 

 NO OUTPUT CONTROL FOR STRESS PERIOD    2   TIME STEP 2756
 
 SOLVING FOR HEAD 

 NO OUTPUT CONTROL FOR STRESS PERIOD    2   TIME STEP 2757
 
 SOLVING FOR HEAD 

 NO OUTPUT CONTROL FOR STRESS PERIOD    2   TIME STEP 2758
 
 SOLVING FOR HEAD 

 NO OUTPUT CONTROL FOR STRESS PERIOD    2   TIME STEP 2759
 
 SOLVING FOR HEAD 

 NO OUTPUT CONTROL FOR STRESS PERIOD    2   TIME STEP 2760
 
 SOLVING FOR HEAD 

 NO OUTPUT CONTROL FOR STRESS PERIOD    2   TIME STEP 2761
 
 SOLVING FOR HEAD 

 NO OUTPUT CONTROL FOR STRESS PERIOD    2   TIME STEP 2762
 
 SOLVING FOR HEAD 

 NO OUTPUT CONTROL FOR STRESS PERIOD    2   TIME STEP 2763
 
 SOLVING FOR HEAD 

 NO OUTPUT CONTROL FOR STRESS PERIOD    2   TIME STEP 2764
 
 SOLVING FOR HEAD 

 NO OUTPUT CONTROL FOR STRESS PERIOD    2   TIME STEP 2765
 
 SOLVING FOR HEAD 

 NO OUTPUT CONTROL FOR STRESS PERIOD    2   TIME STEP 2766
 
 SOLVING FOR HEAD 

 NO OUTPUT CONTROL FOR STRESS PERIOD    2   TIME STEP 2767
 
 SOLVING FOR HEAD 

 NO OUTPUT CONTROL FOR STRESS PERIOD    2   TIME STEP 2768
 
 SOLVING FOR HEAD 

 NO OUTPUT CONTROL FOR STRESS PERIOD    2   TIME STEP 2769
 
 SOLVING FOR HEAD 

 NO OUTPUT CONTROL FOR STRESS PERIOD    2   TIME STEP 2770
 
 SOLVING FOR HEAD 

 NO OUTPUT CONTROL FOR STRESS PERIOD    2   TIME STEP 2771
 
 SOLVING FOR HEAD 

 NO OUTPUT CONTROL FOR STRESS PERIOD    2   TIME STEP 2772
 
 SOLVING FOR HEAD 

 NO OUTPUT CONTROL FOR STRESS PERIOD    2   TIME STEP 2773
 
 SOLVING FOR HEAD 

 NO OUTPUT CONTROL FOR STRESS PERIOD    2   TIME STEP 2774
 
 SOLVING FOR HEAD 

 NO OUTPUT CONTROL FOR STRESS PERIOD    2   TIME STEP 2775
 
 SOLVING FOR HEAD 

 NO OUTPUT CONTROL FOR STRESS PERIOD    2   TIME STEP 2776
 
 SOLVING FOR HEAD 

 NO OUTPUT CONTROL FOR STRESS PERIOD    2   TIME STEP 2777
 
 SOLVING FOR HEAD 

 NO OUTPUT CONTROL FOR STRESS PERIOD    2   TIME STEP 2778
 
 SOLVING FOR HEAD 

 NO OUTPUT CONTROL FOR STRESS PERIOD    2   TIME STEP 2779
 
 SOLVING FOR HEAD 

 NO OUTPUT CONTROL FOR STRESS PERIOD    2   TIME STEP 2780
 
 SOLVING FOR HEAD 

 NO OUTPUT CONTROL FOR STRESS PERIOD    2   TIME STEP 2781
 
 SOLVING FOR HEAD 

 NO OUTPUT CONTROL FOR STRESS PERIOD    2   TIME STEP 2782
 
 SOLVING FOR HEAD 

 NO OUTPUT CONTROL FOR STRESS PERIOD    2   TIME STEP 2783
 
 SOLVING FOR HEAD 

 NO OUTPUT CONTROL FOR STRESS PERIOD    2   TIME STEP 2784
 
 SOLVING FOR HEAD 

 NO OUTPUT CONTROL FOR STRESS PERIOD    2   TIME STEP 2785
 
 SOLVING FOR HEAD 

 NO OUTPUT CONTROL FOR STRESS PERIOD    2   TIME STEP 2786
 
 SOLVING FOR HEAD 

 NO OUTPUT CONTROL FOR STRESS PERIOD    2   TIME STEP 2787
 
 SOLVING FOR HEAD 

 NO OUTPUT CONTROL FOR STRESS PERIOD    2   TIME STEP 2788
 
 SOLVING FOR HEAD 

 NO OUTPUT CONTROL FOR STRESS PERIOD    2   TIME STEP 2789
 
 SOLVING FOR HEAD 

 NO OUTPUT CONTROL FOR STRESS PERIOD    2   TIME STEP 2790
 
 SOLVING FOR HEAD 

 NO OUTPUT CONTROL FOR STRESS PERIOD    2   TIME STEP 2791
 
 SOLVING FOR HEAD 

 NO OUTPUT CONTROL FOR STRESS PERIOD    2   TIME STEP 2792
 
 SOLVING FOR HEAD 

 NO OUTPUT CONTROL FOR STRESS PERIOD    2   TIME STEP 2793
 
 SOLVING FOR HEAD 

 NO OUTPUT CONTROL FOR STRESS PERIOD    2   TIME STEP 2794
 
 SOLVING FOR HEAD 

 NO OUTPUT CONTROL FOR STRESS PERIOD    2   TIME STEP 2795
 
 SOLVING FOR HEAD 

 NO OUTPUT CONTROL FOR STRESS PERIOD    2   TIME STEP 2796
 
 SOLVING FOR HEAD 

 NO OUTPUT CONTROL FOR STRESS PERIOD    2   TIME STEP 2797
 
 SOLVING FOR HEAD 

 NO OUTPUT CONTROL FOR STRESS PERIOD    2   TIME STEP 2798
 
 SOLVING FOR HEAD 

 NO OUTPUT CONTROL FOR STRESS PERIOD    2   TIME STEP 2799
 
 SOLVING FOR HEAD 

 NO OUTPUT CONTROL FOR STRESS PERIOD    2   TIME STEP 2800
 
 SOLVING FOR HEAD 

 NO OUTPUT CONTROL FOR STRESS PERIOD    2   TIME STEP 2801
 
 SOLVING FOR HEAD 

 NO OUTPUT CONTROL FOR STRESS PERIOD    2   TIME STEP 2802
 
 SOLVING FOR HEAD 

 NO OUTPUT CONTROL FOR STRESS PERIOD    2   TIME STEP 2803
 
 SOLVING FOR HEAD 

 NO OUTPUT CONTROL FOR STRESS PERIOD    2   TIME STEP 2804
 
 SOLVING FOR HEAD 

 NO OUTPUT CONTROL FOR STRESS PERIOD    2   TIME STEP 2805
 
 SOLVING FOR HEAD 

 NO OUTPUT CONTROL FOR STRESS PERIOD    2   TIME STEP 2806
 
 SOLVING FOR HEAD 

 NO OUTPUT CONTROL FOR STRESS PERIOD    2   TIME STEP 2807
 
 SOLVING FOR HEAD 

 NO OUTPUT CONTROL FOR STRESS PERIOD    2   TIME STEP 2808
 
 SOLVING FOR HEAD 

 NO OUTPUT CONTROL FOR STRESS PERIOD    2   TIME STEP 2809
 
 SOLVING FOR HEAD 

 NO OUTPUT CONTROL FOR STRESS PERIOD    2   TIME STEP 2810
 
 SOLVING FOR HEAD 

 NO OUTPUT CONTROL FOR STRESS PERIOD    2   TIME STEP 2811
 
 SOLVING FOR HEAD 

 NO OUTPUT CONTROL FOR STRESS PERIOD    2   TIME STEP 2812
 
 SOLVING FOR HEAD 

 NO OUTPUT CONTROL FOR STRESS PERIOD    2   TIME STEP 2813
 
 SOLVING FOR HEAD 

 NO OUTPUT CONTROL FOR STRESS PERIOD    2   TIME STEP 2814
 
 SOLVING FOR HEAD 

 NO OUTPUT CONTROL FOR STRESS PERIOD    2   TIME STEP 2815
 
 SOLVING FOR HEAD 

 NO OUTPUT CONTROL FOR STRESS PERIOD    2   TIME STEP 2816
 
 SOLVING FOR HEAD 

 NO OUTPUT CONTROL FOR STRESS PERIOD    2   TIME STEP 2817
 
 SOLVING FOR HEAD 

 NO OUTPUT CONTROL FOR STRESS PERIOD    2   TIME STEP 2818
 
 SOLVING FOR HEAD 

 NO OUTPUT CONTROL FOR STRESS PERIOD    2   TIME STEP 2819
 
 SOLVING FOR HEAD 

 NO OUTPUT CONTROL FOR STRESS PERIOD    2   TIME STEP 2820
 
 SOLVING FOR HEAD 

 NO OUTPUT CONTROL FOR STRESS PERIOD    2   TIME STEP 2821
 
 SOLVING FOR HEAD 

 NO OUTPUT CONTROL FOR STRESS PERIOD    2   TIME STEP 2822
 
 SOLVING FOR HEAD 

 NO OUTPUT CONTROL FOR STRESS PERIOD    2   TIME STEP 2823
 
 SOLVING FOR HEAD 

 NO OUTPUT CONTROL FOR STRESS PERIOD    2   TIME STEP 2824
 
 SOLVING FOR HEAD 

 NO OUTPUT CONTROL FOR STRESS PERIOD    2   TIME STEP 2825
 
 SOLVING FOR HEAD 

 NO OUTPUT CONTROL FOR STRESS PERIOD    2   TIME STEP 2826
 
 SOLVING FOR HEAD 

 NO OUTPUT CONTROL FOR STRESS PERIOD    2   TIME STEP 2827
 
 SOLVING FOR HEAD 

 NO OUTPUT CONTROL FOR STRESS PERIOD    2   TIME STEP 2828
 
 SOLVING FOR HEAD 

 NO OUTPUT CONTROL FOR STRESS PERIOD    2   TIME STEP 2829
 
 SOLVING FOR HEAD 

 NO OUTPUT CONTROL FOR STRESS PERIOD    2   TIME STEP 2830
 
 SOLVING FOR HEAD 

 NO OUTPUT CONTROL FOR STRESS PERIOD    2   TIME STEP 2831
 
 SOLVING FOR HEAD 

 NO OUTPUT CONTROL FOR STRESS PERIOD    2   TIME STEP 2832
 
 SOLVING FOR HEAD 

 NO OUTPUT CONTROL FOR STRESS PERIOD    2   TIME STEP 2833
 
 SOLVING FOR HEAD 

 NO OUTPUT CONTROL FOR STRESS PERIOD    2   TIME STEP 2834
 
 SOLVING FOR HEAD 

 NO OUTPUT CONTROL FOR STRESS PERIOD    2   TIME STEP 2835
 
 SOLVING FOR HEAD 

 NO OUTPUT CONTROL FOR STRESS PERIOD    2   TIME STEP 2836
 
 SOLVING FOR HEAD 

 NO OUTPUT CONTROL FOR STRESS PERIOD    2   TIME STEP 2837
 
 SOLVING FOR HEAD 

 NO OUTPUT CONTROL FOR STRESS PERIOD    2   TIME STEP 2838
 
 SOLVING FOR HEAD 

 NO OUTPUT CONTROL FOR STRESS PERIOD    2   TIME STEP 2839
 
 SOLVING FOR HEAD 

 NO OUTPUT CONTROL FOR STRESS PERIOD    2   TIME STEP 2840
 
 SOLVING FOR HEAD 

 NO OUTPUT CONTROL FOR STRESS PERIOD    2   TIME STEP 2841
 
 SOLVING FOR HEAD 

 NO OUTPUT CONTROL FOR STRESS PERIOD    2   TIME STEP 2842
 
 SOLVING FOR HEAD 

 NO OUTPUT CONTROL FOR STRESS PERIOD    2   TIME STEP 2843
 
 SOLVING FOR HEAD 

 NO OUTPUT CONTROL FOR STRESS PERIOD    2   TIME STEP 2844
 
 SOLVING FOR HEAD 

 NO OUTPUT CONTROL FOR STRESS PERIOD    2   TIME STEP 2845
 
 SOLVING FOR HEAD 

 NO OUTPUT CONTROL FOR STRESS PERIOD    2   TIME STEP 2846
 
 SOLVING FOR HEAD 

 NO OUTPUT CONTROL FOR STRESS PERIOD    2   TIME STEP 2847
 
 SOLVING FOR HEAD 

 NO OUTPUT CONTROL FOR STRESS PERIOD    2   TIME STEP 2848
 
 SOLVING FOR HEAD 

 NO OUTPUT CONTROL FOR STRESS PERIOD    2   TIME STEP 2849
 
 SOLVING FOR HEAD 

 NO OUTPUT CONTROL FOR STRESS PERIOD    2   TIME STEP 2850
 
 SOLVING FOR HEAD 

 NO OUTPUT CONTROL FOR STRESS PERIOD    2   TIME STEP 2851
 
 SOLVING FOR HEAD 

 NO OUTPUT CONTROL FOR STRESS PERIOD    2   TIME STEP 2852
 
 SOLVING FOR HEAD 

 NO OUTPUT CONTROL FOR STRESS PERIOD    2   TIME STEP 2853
 
 SOLVING FOR HEAD 

 NO OUTPUT CONTROL FOR STRESS PERIOD    2   TIME STEP 2854
 
 SOLVING FOR HEAD 

 NO OUTPUT CONTROL FOR STRESS PERIOD    2   TIME STEP 2855
 
 SOLVING FOR HEAD 

 NO OUTPUT CONTROL FOR STRESS PERIOD    2   TIME STEP 2856
 
 SOLVING FOR HEAD 

 NO OUTPUT CONTROL FOR STRESS PERIOD    2   TIME STEP 2857
 
 SOLVING FOR HEAD 

 NO OUTPUT CONTROL FOR STRESS PERIOD    2   TIME STEP 2858
 
 SOLVING FOR HEAD 

 NO OUTPUT CONTROL FOR STRESS PERIOD    2   TIME STEP 2859
 
 SOLVING FOR HEAD 

 NO OUTPUT CONTROL FOR STRESS PERIOD    2   TIME STEP 2860
 
 SOLVING FOR HEAD 

 NO OUTPUT CONTROL FOR STRESS PERIOD    2   TIME STEP 2861
 
 SOLVING FOR HEAD 

 NO OUTPUT CONTROL FOR STRESS PERIOD    2   TIME STEP 2862
 
 SOLVING FOR HEAD 

 NO OUTPUT CONTROL FOR STRESS PERIOD    2   TIME STEP 2863
 
 SOLVING FOR HEAD 

 NO OUTPUT CONTROL FOR STRESS PERIOD    2   TIME STEP 2864
 
 SOLVING FOR HEAD 

 NO OUTPUT CONTROL FOR STRESS PERIOD    2   TIME STEP 2865
 
 SOLVING FOR HEAD 

 NO OUTPUT CONTROL FOR STRESS PERIOD    2   TIME STEP 2866
 
 SOLVING FOR HEAD 

 NO OUTPUT CONTROL FOR STRESS PERIOD    2   TIME STEP 2867
 
 SOLVING FOR HEAD 

 NO OUTPUT CONTROL FOR STRESS PERIOD    2   TIME STEP 2868
 
 SOLVING FOR HEAD 

 NO OUTPUT CONTROL FOR STRESS PERIOD    2   TIME STEP 2869
 
 SOLVING FOR HEAD 

 NO OUTPUT CONTROL FOR STRESS PERIOD    2   TIME STEP 2870
 
 SOLVING FOR HEAD 

 NO OUTPUT CONTROL FOR STRESS PERIOD    2   TIME STEP 2871
 
 SOLVING FOR HEAD 

 NO OUTPUT CONTROL FOR STRESS PERIOD    2   TIME STEP 2872
 
 SOLVING FOR HEAD 

 NO OUTPUT CONTROL FOR STRESS PERIOD    2   TIME STEP 2873
 
 SOLVING FOR HEAD 

 NO OUTPUT CONTROL FOR STRESS PERIOD    2   TIME STEP 2874
 
 SOLVING FOR HEAD 

 NO OUTPUT CONTROL FOR STRESS PERIOD    2   TIME STEP 2875
 
 SOLVING FOR HEAD 

 NO OUTPUT CONTROL FOR STRESS PERIOD    2   TIME STEP 2876
 
 SOLVING FOR HEAD 

 NO OUTPUT CONTROL FOR STRESS PERIOD    2   TIME STEP 2877
 
 SOLVING FOR HEAD 

 NO OUTPUT CONTROL FOR STRESS PERIOD    2   TIME STEP 2878
 
 SOLVING FOR HEAD 

 NO OUTPUT CONTROL FOR STRESS PERIOD    2   TIME STEP 2879
 
 SOLVING FOR HEAD 

 NO OUTPUT CONTROL FOR STRESS PERIOD    2   TIME STEP 2880
 
 SOLVING FOR HEAD 

 NO OUTPUT CONTROL FOR STRESS PERIOD    2   TIME STEP 2881
 
 SOLVING FOR HEAD 

 NO OUTPUT CONTROL FOR STRESS PERIOD    2   TIME STEP 2882
 
 SOLVING FOR HEAD 

 NO OUTPUT CONTROL FOR STRESS PERIOD    2   TIME STEP 2883
 
 SOLVING FOR HEAD 

 NO OUTPUT CONTROL FOR STRESS PERIOD    2   TIME STEP 2884
 
 SOLVING FOR HEAD 

 NO OUTPUT CONTROL FOR STRESS PERIOD    2   TIME STEP 2885
 
 SOLVING FOR HEAD 

 NO OUTPUT CONTROL FOR STRESS PERIOD    2   TIME STEP 2886
 
 SOLVING FOR HEAD 

 NO OUTPUT CONTROL FOR STRESS PERIOD    2   TIME STEP 2887
 
 SOLVING FOR HEAD 

 NO OUTPUT CONTROL FOR STRESS PERIOD    2   TIME STEP 2888
 
 SOLVING FOR HEAD 

 NO OUTPUT CONTROL FOR STRESS PERIOD    2   TIME STEP 2889
 
 SOLVING FOR HEAD 

 NO OUTPUT CONTROL FOR STRESS PERIOD    2   TIME STEP 2890
 
 SOLVING FOR HEAD 

 NO OUTPUT CONTROL FOR STRESS PERIOD    2   TIME STEP 2891
 
 SOLVING FOR HEAD 

 NO OUTPUT CONTROL FOR STRESS PERIOD    2   TIME STEP 2892
 
 SOLVING FOR HEAD 

 NO OUTPUT CONTROL FOR STRESS PERIOD    2   TIME STEP 2893
 
 SOLVING FOR HEAD 

 NO OUTPUT CONTROL FOR STRESS PERIOD    2   TIME STEP 2894
 
 SOLVING FOR HEAD 

 NO OUTPUT CONTROL FOR STRESS PERIOD    2   TIME STEP 2895
 
 SOLVING FOR HEAD 

 NO OUTPUT CONTROL FOR STRESS PERIOD    2   TIME STEP 2896
 
 SOLVING FOR HEAD 

 NO OUTPUT CONTROL FOR STRESS PERIOD    2   TIME STEP 2897
 
 SOLVING FOR HEAD 

 NO OUTPUT CONTROL FOR STRESS PERIOD    2   TIME STEP 2898
 
 SOLVING FOR HEAD 

 NO OUTPUT CONTROL FOR STRESS PERIOD    2   TIME STEP 2899
 
 SOLVING FOR HEAD 

 NO OUTPUT CONTROL FOR STRESS PERIOD    2   TIME STEP 2900
 
 SOLVING FOR HEAD 

 NO OUTPUT CONTROL FOR STRESS PERIOD    2   TIME STEP 2901
 
 SOLVING FOR HEAD 

 NO OUTPUT CONTROL FOR STRESS PERIOD    2   TIME STEP 2902
 
 SOLVING FOR HEAD 

 NO OUTPUT CONTROL FOR STRESS PERIOD    2   TIME STEP 2903
 
 SOLVING FOR HEAD 

 NO OUTPUT CONTROL FOR STRESS PERIOD    2   TIME STEP 2904
 
 SOLVING FOR HEAD 

 NO OUTPUT CONTROL FOR STRESS PERIOD    2   TIME STEP 2905
 
 SOLVING FOR HEAD 

 NO OUTPUT CONTROL FOR STRESS PERIOD    2   TIME STEP 2906
 
 SOLVING FOR HEAD 

 NO OUTPUT CONTROL FOR STRESS PERIOD    2   TIME STEP 2907
 
 SOLVING FOR HEAD 

 NO OUTPUT CONTROL FOR STRESS PERIOD    2   TIME STEP 2908
 
 SOLVING FOR HEAD 

 NO OUTPUT CONTROL FOR STRESS PERIOD    2   TIME STEP 2909
 
 SOLVING FOR HEAD 

 NO OUTPUT CONTROL FOR STRESS PERIOD    2   TIME STEP 2910
 
 SOLVING FOR HEAD 

 NO OUTPUT CONTROL FOR STRESS PERIOD    2   TIME STEP 2911
 
 SOLVING FOR HEAD 

 NO OUTPUT CONTROL FOR STRESS PERIOD    2   TIME STEP 2912
 
 SOLVING FOR HEAD 

 NO OUTPUT CONTROL FOR STRESS PERIOD    2   TIME STEP 2913
 
 SOLVING FOR HEAD 

 NO OUTPUT CONTROL FOR STRESS PERIOD    2   TIME STEP 2914
 
 SOLVING FOR HEAD 

 NO OUTPUT CONTROL FOR STRESS PERIOD    2   TIME STEP 2915
 
 SOLVING FOR HEAD 

 NO OUTPUT CONTROL FOR STRESS PERIOD    2   TIME STEP 2916
 
 SOLVING FOR HEAD 

 NO OUTPUT CONTROL FOR STRESS PERIOD    2   TIME STEP 2917
 
 SOLVING FOR HEAD 

 NO OUTPUT CONTROL FOR STRESS PERIOD    2   TIME STEP 2918
 
 SOLVING FOR HEAD 

 NO OUTPUT CONTROL FOR STRESS PERIOD    2   TIME STEP 2919
 
 SOLVING FOR HEAD 

 NO OUTPUT CONTROL FOR STRESS PERIOD    2   TIME STEP 2920
 
 SOLVING FOR HEAD 

 NO OUTPUT CONTROL FOR STRESS PERIOD    2   TIME STEP 2921
 
 SOLVING FOR HEAD 

 NO OUTPUT CONTROL FOR STRESS PERIOD    2   TIME STEP 2922
 
 SOLVING FOR HEAD 

 NO OUTPUT CONTROL FOR STRESS PERIOD    2   TIME STEP 2923
 
 SOLVING FOR HEAD 

 NO OUTPUT CONTROL FOR STRESS PERIOD    2   TIME STEP 2924
 
 SOLVING FOR HEAD 

 NO OUTPUT CONTROL FOR STRESS PERIOD    2   TIME STEP 2925
 
 SOLVING FOR HEAD 

 NO OUTPUT CONTROL FOR STRESS PERIOD    2   TIME STEP 2926
 
 SOLVING FOR HEAD 

 NO OUTPUT CONTROL FOR STRESS PERIOD    2   TIME STEP 2927
 
 SOLVING FOR HEAD 

 NO OUTPUT CONTROL FOR STRESS PERIOD    2   TIME STEP 2928
 
 SOLVING FOR HEAD 

 NO OUTPUT CONTROL FOR STRESS PERIOD    2   TIME STEP 2929
 
 SOLVING FOR HEAD 

 NO OUTPUT CONTROL FOR STRESS PERIOD    2   TIME STEP 2930
 
 SOLVING FOR HEAD 

 NO OUTPUT CONTROL FOR STRESS PERIOD    2   TIME STEP 2931
 
 SOLVING FOR HEAD 

 NO OUTPUT CONTROL FOR STRESS PERIOD    2   TIME STEP 2932
 
 SOLVING FOR HEAD 

 NO OUTPUT CONTROL FOR STRESS PERIOD    2   TIME STEP 2933
 
 SOLVING FOR HEAD 

 NO OUTPUT CONTROL FOR STRESS PERIOD    2   TIME STEP 2934
 
 SOLVING FOR HEAD 

 NO OUTPUT CONTROL FOR STRESS PERIOD    2   TIME STEP 2935
 
 SOLVING FOR HEAD 

 NO OUTPUT CONTROL FOR STRESS PERIOD    2   TIME STEP 2936
 
 SOLVING FOR HEAD 

 NO OUTPUT CONTROL FOR STRESS PERIOD    2   TIME STEP 2937
 
 SOLVING FOR HEAD 

 NO OUTPUT CONTROL FOR STRESS PERIOD    2   TIME STEP 2938
 
 SOLVING FOR HEAD 

 NO OUTPUT CONTROL FOR STRESS PERIOD    2   TIME STEP 2939
 
 SOLVING FOR HEAD 

 NO OUTPUT CONTROL FOR STRESS PERIOD    2   TIME STEP 2940
 
 SOLVING FOR HEAD 

 NO OUTPUT CONTROL FOR STRESS PERIOD    2   TIME STEP 2941
 
 SOLVING FOR HEAD 

 NO OUTPUT CONTROL FOR STRESS PERIOD    2   TIME STEP 2942
 
 SOLVING FOR HEAD 

 NO OUTPUT CONTROL FOR STRESS PERIOD    2   TIME STEP 2943
 
 SOLVING FOR HEAD 

 NO OUTPUT CONTROL FOR STRESS PERIOD    2   TIME STEP 2944
 
 SOLVING FOR HEAD 

 NO OUTPUT CONTROL FOR STRESS PERIOD    2   TIME STEP 2945
 
 SOLVING FOR HEAD 

 NO OUTPUT CONTROL FOR STRESS PERIOD    2   TIME STEP 2946
 
 SOLVING FOR HEAD 

 NO OUTPUT CONTROL FOR STRESS PERIOD    2   TIME STEP 2947
 
 SOLVING FOR HEAD 

 NO OUTPUT CONTROL FOR STRESS PERIOD    2   TIME STEP 2948
 
 SOLVING FOR HEAD 

 NO OUTPUT CONTROL FOR STRESS PERIOD    2   TIME STEP 2949
 
 SOLVING FOR HEAD 

 NO OUTPUT CONTROL FOR STRESS PERIOD    2   TIME STEP 2950
 
 SOLVING FOR HEAD 

 NO OUTPUT CONTROL FOR STRESS PERIOD    2   TIME STEP 2951
 
 SOLVING FOR HEAD 

 NO OUTPUT CONTROL FOR STRESS PERIOD    2   TIME STEP 2952
 
 SOLVING FOR HEAD 

 NO OUTPUT CONTROL FOR STRESS PERIOD    2   TIME STEP 2953
 
 SOLVING FOR HEAD 

 NO OUTPUT CONTROL FOR STRESS PERIOD    2   TIME STEP 2954
 
 SOLVING FOR HEAD 

 NO OUTPUT CONTROL FOR STRESS PERIOD    2   TIME STEP 2955
 
 SOLVING FOR HEAD 

 NO OUTPUT CONTROL FOR STRESS PERIOD    2   TIME STEP 2956
 
 SOLVING FOR HEAD 

 NO OUTPUT CONTROL FOR STRESS PERIOD    2   TIME STEP 2957
 
 SOLVING FOR HEAD 

 NO OUTPUT CONTROL FOR STRESS PERIOD    2   TIME STEP 2958
 
 SOLVING FOR HEAD 

 NO OUTPUT CONTROL FOR STRESS PERIOD    2   TIME STEP 2959
 
 SOLVING FOR HEAD 

 NO OUTPUT CONTROL FOR STRESS PERIOD    2   TIME STEP 2960
 
 SOLVING FOR HEAD 

 NO OUTPUT CONTROL FOR STRESS PERIOD    2   TIME STEP 2961
 
 SOLVING FOR HEAD 

 NO OUTPUT CONTROL FOR STRESS PERIOD    2   TIME STEP 2962
 
 SOLVING FOR HEAD 

 NO OUTPUT CONTROL FOR STRESS PERIOD    2   TIME STEP 2963
 
 SOLVING FOR HEAD 

 NO OUTPUT CONTROL FOR STRESS PERIOD    2   TIME STEP 2964
 
 SOLVING FOR HEAD 

 NO OUTPUT CONTROL FOR STRESS PERIOD    2   TIME STEP 2965
 
 SOLVING FOR HEAD 

 NO OUTPUT CONTROL FOR STRESS PERIOD    2   TIME STEP 2966
 
 SOLVING FOR HEAD 

 NO OUTPUT CONTROL FOR STRESS PERIOD    2   TIME STEP 2967
 
 SOLVING FOR HEAD 

 NO OUTPUT CONTROL FOR STRESS PERIOD    2   TIME STEP 2968
 
 SOLVING FOR HEAD 

 NO OUTPUT CONTROL FOR STRESS PERIOD    2   TIME STEP 2969
 
 SOLVING FOR HEAD 

 NO OUTPUT CONTROL FOR STRESS PERIOD    2   TIME STEP 2970
 
 SOLVING FOR HEAD 

 NO OUTPUT CONTROL FOR STRESS PERIOD    2   TIME STEP 2971
 
 SOLVING FOR HEAD 

 NO OUTPUT CONTROL FOR STRESS PERIOD    2   TIME STEP 2972
 
 SOLVING FOR HEAD 

 NO OUTPUT CONTROL FOR STRESS PERIOD    2   TIME STEP 2973
 
 SOLVING FOR HEAD 

 NO OUTPUT CONTROL FOR STRESS PERIOD    2   TIME STEP 2974
 
 SOLVING FOR HEAD 

 NO OUTPUT CONTROL FOR STRESS PERIOD    2   TIME STEP 2975
 
 SOLVING FOR HEAD 

 NO OUTPUT CONTROL FOR STRESS PERIOD    2   TIME STEP 2976
 
 SOLVING FOR HEAD 

 NO OUTPUT CONTROL FOR STRESS PERIOD    2   TIME STEP 2977
 
 SOLVING FOR HEAD 

 NO OUTPUT CONTROL FOR STRESS PERIOD    2   TIME STEP 2978
 
 SOLVING FOR HEAD 

 NO OUTPUT CONTROL FOR STRESS PERIOD    2   TIME STEP 2979
 
 SOLVING FOR HEAD 

 NO OUTPUT CONTROL FOR STRESS PERIOD    2   TIME STEP 2980
 
 SOLVING FOR HEAD 

 NO OUTPUT CONTROL FOR STRESS PERIOD    2   TIME STEP 2981
 
 SOLVING FOR HEAD 

 NO OUTPUT CONTROL FOR STRESS PERIOD    2   TIME STEP 2982
 
 SOLVING FOR HEAD 

 NO OUTPUT CONTROL FOR STRESS PERIOD    2   TIME STEP 2983
 
 SOLVING FOR HEAD 

 NO OUTPUT CONTROL FOR STRESS PERIOD    2   TIME STEP 2984
 
 SOLVING FOR HEAD 

 NO OUTPUT CONTROL FOR STRESS PERIOD    2   TIME STEP 2985
 
 SOLVING FOR HEAD 

 NO OUTPUT CONTROL FOR STRESS PERIOD    2   TIME STEP 2986
 
 SOLVING FOR HEAD 

 NO OUTPUT CONTROL FOR STRESS PERIOD    2   TIME STEP 2987
 
 SOLVING FOR HEAD 

 NO OUTPUT CONTROL FOR STRESS PERIOD    2   TIME STEP 2988
 
 SOLVING FOR HEAD 

 NO OUTPUT CONTROL FOR STRESS PERIOD    2   TIME STEP 2989
 
 SOLVING FOR HEAD 

 NO OUTPUT CONTROL FOR STRESS PERIOD    2   TIME STEP 2990
 
 SOLVING FOR HEAD 

 NO OUTPUT CONTROL FOR STRESS PERIOD    2   TIME STEP 2991
 
 SOLVING FOR HEAD 

 NO OUTPUT CONTROL FOR STRESS PERIOD    2   TIME STEP 2992
 
 SOLVING FOR HEAD 

 NO OUTPUT CONTROL FOR STRESS PERIOD    2   TIME STEP 2993
 
 SOLVING FOR HEAD 

 NO OUTPUT CONTROL FOR STRESS PERIOD    2   TIME STEP 2994
 
 SOLVING FOR HEAD 

 NO OUTPUT CONTROL FOR STRESS PERIOD    2   TIME STEP 2995
 
 SOLVING FOR HEAD 

 NO OUTPUT CONTROL FOR STRESS PERIOD    2   TIME STEP 2996
 
 SOLVING FOR HEAD 

 NO OUTPUT CONTROL FOR STRESS PERIOD    2   TIME STEP 2997
 
 SOLVING FOR HEAD 

 NO OUTPUT CONTROL FOR STRESS PERIOD    2   TIME STEP 2998
 
 SOLVING FOR HEAD 

 NO OUTPUT CONTROL FOR STRESS PERIOD    2   TIME STEP 2999
 
 SOLVING FOR HEAD 

 NO OUTPUT CONTROL FOR STRESS PERIOD    2   TIME STEP 3000
 
 SOLVING FOR HEAD 

 NO OUTPUT CONTROL FOR STRESS PERIOD    2   TIME STEP 3001
 
 SOLVING FOR HEAD 

 NO OUTPUT CONTROL FOR STRESS PERIOD    2   TIME STEP 3002
 
 SOLVING FOR HEAD 

 NO OUTPUT CONTROL FOR STRESS PERIOD    2   TIME STEP 3003
 
 SOLVING FOR HEAD 

 NO OUTPUT CONTROL FOR STRESS PERIOD    2   TIME STEP 3004
 
 SOLVING FOR HEAD 

 NO OUTPUT CONTROL FOR STRESS PERIOD    2   TIME STEP 3005
 
 SOLVING FOR HEAD 

 NO OUTPUT CONTROL FOR STRESS PERIOD    2   TIME STEP 3006
 
 SOLVING FOR HEAD 

 NO OUTPUT CONTROL FOR STRESS PERIOD    2   TIME STEP 3007
 
 SOLVING FOR HEAD 

 NO OUTPUT CONTROL FOR STRESS PERIOD    2   TIME STEP 3008
 
 SOLVING FOR HEAD 

 NO OUTPUT CONTROL FOR STRESS PERIOD    2   TIME STEP 3009
 
 SOLVING FOR HEAD 

 NO OUTPUT CONTROL FOR STRESS PERIOD    2   TIME STEP 3010
 
 SOLVING FOR HEAD 

 NO OUTPUT CONTROL FOR STRESS PERIOD    2   TIME STEP 3011
 
 SOLVING FOR HEAD 

 NO OUTPUT CONTROL FOR STRESS PERIOD    2   TIME STEP 3012
 
 SOLVING FOR HEAD 

 NO OUTPUT CONTROL FOR STRESS PERIOD    2   TIME STEP 3013
 
 SOLVING FOR HEAD 

 NO OUTPUT CONTROL FOR STRESS PERIOD    2   TIME STEP 3014
 
 SOLVING FOR HEAD 

 NO OUTPUT CONTROL FOR STRESS PERIOD    2   TIME STEP 3015
 
 SOLVING FOR HEAD 

 NO OUTPUT CONTROL FOR STRESS PERIOD    2   TIME STEP 3016
 
 SOLVING FOR HEAD 

 NO OUTPUT CONTROL FOR STRESS PERIOD    2   TIME STEP 3017
 
 SOLVING FOR HEAD 

 NO OUTPUT CONTROL FOR STRESS PERIOD    2   TIME STEP 3018
 
 SOLVING FOR HEAD 

 NO OUTPUT CONTROL FOR STRESS PERIOD    2   TIME STEP 3019
 
 SOLVING FOR HEAD 

 NO OUTPUT CONTROL FOR STRESS PERIOD    2   TIME STEP 3020
 
 SOLVING FOR HEAD 

 NO OUTPUT CONTROL FOR STRESS PERIOD    2   TIME STEP 3021
 
 SOLVING FOR HEAD 

 NO OUTPUT CONTROL FOR STRESS PERIOD    2   TIME STEP 3022
 
 SOLVING FOR HEAD 

 NO OUTPUT CONTROL FOR STRESS PERIOD    2   TIME STEP 3023
 
 SOLVING FOR HEAD 

 NO OUTPUT CONTROL FOR STRESS PERIOD    2   TIME STEP 3024
 
 SOLVING FOR HEAD 

 NO OUTPUT CONTROL FOR STRESS PERIOD    2   TIME STEP 3025
 
 SOLVING FOR HEAD 

 NO OUTPUT CONTROL FOR STRESS PERIOD    2   TIME STEP 3026
 
 SOLVING FOR HEAD 

 NO OUTPUT CONTROL FOR STRESS PERIOD    2   TIME STEP 3027
 
 SOLVING FOR HEAD 

 NO OUTPUT CONTROL FOR STRESS PERIOD    2   TIME STEP 3028
 
 SOLVING FOR HEAD 

 NO OUTPUT CONTROL FOR STRESS PERIOD    2   TIME STEP 3029
 
 SOLVING FOR HEAD 

 NO OUTPUT CONTROL FOR STRESS PERIOD    2   TIME STEP 3030
 
 SOLVING FOR HEAD 

 NO OUTPUT CONTROL FOR STRESS PERIOD    2   TIME STEP 3031
 
 SOLVING FOR HEAD 

 NO OUTPUT CONTROL FOR STRESS PERIOD    2   TIME STEP 3032
 
 SOLVING FOR HEAD 

 NO OUTPUT CONTROL FOR STRESS PERIOD    2   TIME STEP 3033
 
 SOLVING FOR HEAD 

 NO OUTPUT CONTROL FOR STRESS PERIOD    2   TIME STEP 3034
 
 SOLVING FOR HEAD 

 NO OUTPUT CONTROL FOR STRESS PERIOD    2   TIME STEP 3035
 
 SOLVING FOR HEAD 

 NO OUTPUT CONTROL FOR STRESS PERIOD    2   TIME STEP 3036
 
 SOLVING FOR HEAD 

 NO OUTPUT CONTROL FOR STRESS PERIOD    2   TIME STEP 3037
 
 SOLVING FOR HEAD 

 NO OUTPUT CONTROL FOR STRESS PERIOD    2   TIME STEP 3038
 
 SOLVING FOR HEAD 

 NO OUTPUT CONTROL FOR STRESS PERIOD    2   TIME STEP 3039
 
 SOLVING FOR HEAD 

 NO OUTPUT CONTROL FOR STRESS PERIOD    2   TIME STEP 3040
 
 SOLVING FOR HEAD 

 NO OUTPUT CONTROL FOR STRESS PERIOD    2   TIME STEP 3041
 
 SOLVING FOR HEAD 

 NO OUTPUT CONTROL FOR STRESS PERIOD    2   TIME STEP 3042
 
 SOLVING FOR HEAD 

 NO OUTPUT CONTROL FOR STRESS PERIOD    2   TIME STEP 3043
 
 SOLVING FOR HEAD 

 NO OUTPUT CONTROL FOR STRESS PERIOD    2   TIME STEP 3044
 
 SOLVING FOR HEAD 

 NO OUTPUT CONTROL FOR STRESS PERIOD    2   TIME STEP 3045
 
 SOLVING FOR HEAD 

 NO OUTPUT CONTROL FOR STRESS PERIOD    2   TIME STEP 3046
 
 SOLVING FOR HEAD 

 NO OUTPUT CONTROL FOR STRESS PERIOD    2   TIME STEP 3047
 
 SOLVING FOR HEAD 

 NO OUTPUT CONTROL FOR STRESS PERIOD    2   TIME STEP 3048
 
 SOLVING FOR HEAD 

 NO OUTPUT CONTROL FOR STRESS PERIOD    2   TIME STEP 3049
 
 SOLVING FOR HEAD 

 NO OUTPUT CONTROL FOR STRESS PERIOD    2   TIME STEP 3050
 
 SOLVING FOR HEAD 

 NO OUTPUT CONTROL FOR STRESS PERIOD    2   TIME STEP 3051
 
 SOLVING FOR HEAD 

 NO OUTPUT CONTROL FOR STRESS PERIOD    2   TIME STEP 3052
 
 SOLVING FOR HEAD 

 NO OUTPUT CONTROL FOR STRESS PERIOD    2   TIME STEP 3053
 
 SOLVING FOR HEAD 

 NO OUTPUT CONTROL FOR STRESS PERIOD    2   TIME STEP 3054
 
 SOLVING FOR HEAD 

 NO OUTPUT CONTROL FOR STRESS PERIOD    2   TIME STEP 3055
 
 SOLVING FOR HEAD 

 NO OUTPUT CONTROL FOR STRESS PERIOD    2   TIME STEP 3056
 
 SOLVING FOR HEAD 

 NO OUTPUT CONTROL FOR STRESS PERIOD    2   TIME STEP 3057
 
 SOLVING FOR HEAD 

 NO OUTPUT CONTROL FOR STRESS PERIOD    2   TIME STEP 3058
 
 SOLVING FOR HEAD 

 NO OUTPUT CONTROL FOR STRESS PERIOD    2   TIME STEP 3059
 
 SOLVING FOR HEAD 

 NO OUTPUT CONTROL FOR STRESS PERIOD    2   TIME STEP 3060
 
 SOLVING FOR HEAD 

 NO OUTPUT CONTROL FOR STRESS PERIOD    2   TIME STEP 3061
 
 SOLVING FOR HEAD 

 NO OUTPUT CONTROL FOR STRESS PERIOD    2   TIME STEP 3062
 
 SOLVING FOR HEAD 

 NO OUTPUT CONTROL FOR STRESS PERIOD    2   TIME STEP 3063
 
 SOLVING FOR HEAD 

 NO OUTPUT CONTROL FOR STRESS PERIOD    2   TIME STEP 3064
 
 SOLVING FOR HEAD 

 NO OUTPUT CONTROL FOR STRESS PERIOD    2   TIME STEP 3065
 
 SOLVING FOR HEAD 

 NO OUTPUT CONTROL FOR STRESS PERIOD    2   TIME STEP 3066
 
 SOLVING FOR HEAD 

 NO OUTPUT CONTROL FOR STRESS PERIOD    2   TIME STEP 3067
 
 SOLVING FOR HEAD 

 NO OUTPUT CONTROL FOR STRESS PERIOD    2   TIME STEP 3068
 
 SOLVING FOR HEAD 

 NO OUTPUT CONTROL FOR STRESS PERIOD    2   TIME STEP 3069
 
 SOLVING FOR HEAD 

 NO OUTPUT CONTROL FOR STRESS PERIOD    2   TIME STEP 3070
 
 SOLVING FOR HEAD 

 NO OUTPUT CONTROL FOR STRESS PERIOD    2   TIME STEP 3071
 
 SOLVING FOR HEAD 

 NO OUTPUT CONTROL FOR STRESS PERIOD    2   TIME STEP 3072
 
 SOLVING FOR HEAD 

 NO OUTPUT CONTROL FOR STRESS PERIOD    2   TIME STEP 3073
 
 SOLVING FOR HEAD 

 NO OUTPUT CONTROL FOR STRESS PERIOD    2   TIME STEP 3074
 
 SOLVING FOR HEAD 

 NO OUTPUT CONTROL FOR STRESS PERIOD    2   TIME STEP 3075
 
 SOLVING FOR HEAD 

 NO OUTPUT CONTROL FOR STRESS PERIOD    2   TIME STEP 3076
 
 SOLVING FOR HEAD 

 NO OUTPUT CONTROL FOR STRESS PERIOD    2   TIME STEP 3077
 
 SOLVING FOR HEAD 

 NO OUTPUT CONTROL FOR STRESS PERIOD    2   TIME STEP 3078
 
 SOLVING FOR HEAD 

 NO OUTPUT CONTROL FOR STRESS PERIOD    2   TIME STEP 3079
 
 SOLVING FOR HEAD 

 NO OUTPUT CONTROL FOR STRESS PERIOD    2   TIME STEP 3080
 
 SOLVING FOR HEAD 

 NO OUTPUT CONTROL FOR STRESS PERIOD    2   TIME STEP 3081
 
 SOLVING FOR HEAD 

 NO OUTPUT CONTROL FOR STRESS PERIOD    2   TIME STEP 3082
 
 SOLVING FOR HEAD 

 NO OUTPUT CONTROL FOR STRESS PERIOD    2   TIME STEP 3083
 
 SOLVING FOR HEAD 

 NO OUTPUT CONTROL FOR STRESS PERIOD    2   TIME STEP 3084
 
 SOLVING FOR HEAD 

 NO OUTPUT CONTROL FOR STRESS PERIOD    2   TIME STEP 3085
 
 SOLVING FOR HEAD 

 NO OUTPUT CONTROL FOR STRESS PERIOD    2   TIME STEP 3086
 
 SOLVING FOR HEAD 

 NO OUTPUT CONTROL FOR STRESS PERIOD    2   TIME STEP 3087
 
 SOLVING FOR HEAD 

 NO OUTPUT CONTROL FOR STRESS PERIOD    2   TIME STEP 3088
 
 SOLVING FOR HEAD 

 NO OUTPUT CONTROL FOR STRESS PERIOD    2   TIME STEP 3089
 
 SOLVING FOR HEAD 

 NO OUTPUT CONTROL FOR STRESS PERIOD    2   TIME STEP 3090
 
 SOLVING FOR HEAD 

 NO OUTPUT CONTROL FOR STRESS PERIOD    2   TIME STEP 3091
 
 SOLVING FOR HEAD 

 NO OUTPUT CONTROL FOR STRESS PERIOD    2   TIME STEP 3092
 
 SOLVING FOR HEAD 

 NO OUTPUT CONTROL FOR STRESS PERIOD    2   TIME STEP 3093
 
 SOLVING FOR HEAD 

 NO OUTPUT CONTROL FOR STRESS PERIOD    2   TIME STEP 3094
 
 SOLVING FOR HEAD 

 NO OUTPUT CONTROL FOR STRESS PERIOD    2   TIME STEP 3095
 
 SOLVING FOR HEAD 

 NO OUTPUT CONTROL FOR STRESS PERIOD    2   TIME STEP 3096
 
 SOLVING FOR HEAD 

 NO OUTPUT CONTROL FOR STRESS PERIOD    2   TIME STEP 3097
 
 SOLVING FOR HEAD 

 NO OUTPUT CONTROL FOR STRESS PERIOD    2   TIME STEP 3098
 
 SOLVING FOR HEAD 

 NO OUTPUT CONTROL FOR STRESS PERIOD    2   TIME STEP 3099
 
 SOLVING FOR HEAD 

 NO OUTPUT CONTROL FOR STRESS PERIOD    2   TIME STEP 3100
 
 SOLVING FOR HEAD 

 NO OUTPUT CONTROL FOR STRESS PERIOD    2   TIME STEP 3101
 
 SOLVING FOR HEAD 

 NO OUTPUT CONTROL FOR STRESS PERIOD    2   TIME STEP 3102
 
 SOLVING FOR HEAD 

 NO OUTPUT CONTROL FOR STRESS PERIOD    2   TIME STEP 3103
 
 SOLVING FOR HEAD 

 NO OUTPUT CONTROL FOR STRESS PERIOD    2   TIME STEP 3104
 
 SOLVING FOR HEAD 

 NO OUTPUT CONTROL FOR STRESS PERIOD    2   TIME STEP 3105
 
 SOLVING FOR HEAD 

 NO OUTPUT CONTROL FOR STRESS PERIOD    2   TIME STEP 3106
 
 SOLVING FOR HEAD 

 NO OUTPUT CONTROL FOR STRESS PERIOD    2   TIME STEP 3107
 
 SOLVING FOR HEAD 

 NO OUTPUT CONTROL FOR STRESS PERIOD    2   TIME STEP 3108
 
 SOLVING FOR HEAD 

 NO OUTPUT CONTROL FOR STRESS PERIOD    2   TIME STEP 3109
 
 SOLVING FOR HEAD 

 NO OUTPUT CONTROL FOR STRESS PERIOD    2   TIME STEP 3110
 
 SOLVING FOR HEAD 

 NO OUTPUT CONTROL FOR STRESS PERIOD    2   TIME STEP 3111
 
 SOLVING FOR HEAD 

 NO OUTPUT CONTROL FOR STRESS PERIOD    2   TIME STEP 3112
 
 SOLVING FOR HEAD 

 NO OUTPUT CONTROL FOR STRESS PERIOD    2   TIME STEP 3113
 
 SOLVING FOR HEAD 

 NO OUTPUT CONTROL FOR STRESS PERIOD    2   TIME STEP 3114
 
 SOLVING FOR HEAD 

 NO OUTPUT CONTROL FOR STRESS PERIOD    2   TIME STEP 3115
 
 SOLVING FOR HEAD 

 NO OUTPUT CONTROL FOR STRESS PERIOD    2   TIME STEP 3116
 
 SOLVING FOR HEAD 

 NO OUTPUT CONTROL FOR STRESS PERIOD    2   TIME STEP 3117
 
 SOLVING FOR HEAD 

 NO OUTPUT CONTROL FOR STRESS PERIOD    2   TIME STEP 3118
 
 SOLVING FOR HEAD 

 NO OUTPUT CONTROL FOR STRESS PERIOD    2   TIME STEP 3119
 
 SOLVING FOR HEAD 

 NO OUTPUT CONTROL FOR STRESS PERIOD    2   TIME STEP 3120
 
 SOLVING FOR HEAD 

 NO OUTPUT CONTROL FOR STRESS PERIOD    2   TIME STEP 3121
 
 SOLVING FOR HEAD 

 NO OUTPUT CONTROL FOR STRESS PERIOD    2   TIME STEP 3122
 
 SOLVING FOR HEAD 

 NO OUTPUT CONTROL FOR STRESS PERIOD    2   TIME STEP 3123
 
 SOLVING FOR HEAD 

 NO OUTPUT CONTROL FOR STRESS PERIOD    2   TIME STEP 3124
 
 SOLVING FOR HEAD 

 NO OUTPUT CONTROL FOR STRESS PERIOD    2   TIME STEP 3125
 
 SOLVING FOR HEAD 

 NO OUTPUT CONTROL FOR STRESS PERIOD    2   TIME STEP 3126
 
 SOLVING FOR HEAD 

 NO OUTPUT CONTROL FOR STRESS PERIOD    2   TIME STEP 3127
 
 SOLVING FOR HEAD 

 NO OUTPUT CONTROL FOR STRESS PERIOD    2   TIME STEP 3128
 
 SOLVING FOR HEAD 

 NO OUTPUT CONTROL FOR STRESS PERIOD    2   TIME STEP 3129
 
 SOLVING FOR HEAD 

 NO OUTPUT CONTROL FOR STRESS PERIOD    2   TIME STEP 3130
 
 SOLVING FOR HEAD 

 NO OUTPUT CONTROL FOR STRESS PERIOD    2   TIME STEP 3131
 
 SOLVING FOR HEAD 

 NO OUTPUT CONTROL FOR STRESS PERIOD    2   TIME STEP 3132
 
 SOLVING FOR HEAD 

 NO OUTPUT CONTROL FOR STRESS PERIOD    2   TIME STEP 3133
 
 SOLVING FOR HEAD 

 NO OUTPUT CONTROL FOR STRESS PERIOD    2   TIME STEP 3134
 
 SOLVING FOR HEAD 

 NO OUTPUT CONTROL FOR STRESS PERIOD    2   TIME STEP 3135
 
 SOLVING FOR HEAD 

 NO OUTPUT CONTROL FOR STRESS PERIOD    2   TIME STEP 3136
 
 SOLVING FOR HEAD 

 NO OUTPUT CONTROL FOR STRESS PERIOD    2   TIME STEP 3137
 
 SOLVING FOR HEAD 

 NO OUTPUT CONTROL FOR STRESS PERIOD    2   TIME STEP 3138
 
 SOLVING FOR HEAD 

 NO OUTPUT CONTROL FOR STRESS PERIOD    2   TIME STEP 3139
 
 SOLVING FOR HEAD 

 NO OUTPUT CONTROL FOR STRESS PERIOD    2   TIME STEP 3140
 
 SOLVING FOR HEAD 

 NO OUTPUT CONTROL FOR STRESS PERIOD    2   TIME STEP 3141
 
 SOLVING FOR HEAD 

 NO OUTPUT CONTROL FOR STRESS PERIOD    2   TIME STEP 3142
 
 SOLVING FOR HEAD 

 NO OUTPUT CONTROL FOR STRESS PERIOD    2   TIME STEP 3143
 
 SOLVING FOR HEAD 

 NO OUTPUT CONTROL FOR STRESS PERIOD    2   TIME STEP 3144
 
 SOLVING FOR HEAD 

 NO OUTPUT CONTROL FOR STRESS PERIOD    2   TIME STEP 3145
 
 SOLVING FOR HEAD 

 NO OUTPUT CONTROL FOR STRESS PERIOD    2   TIME STEP 3146
 
 SOLVING FOR HEAD 

 NO OUTPUT CONTROL FOR STRESS PERIOD    2   TIME STEP 3147
 
 SOLVING FOR HEAD 

 NO OUTPUT CONTROL FOR STRESS PERIOD    2   TIME STEP 3148
 
 SOLVING FOR HEAD 

 NO OUTPUT CONTROL FOR STRESS PERIOD    2   TIME STEP 3149
 
 SOLVING FOR HEAD 

 NO OUTPUT CONTROL FOR STRESS PERIOD    2   TIME STEP 3150
 
 SOLVING FOR HEAD 

 NO OUTPUT CONTROL FOR STRESS PERIOD    2   TIME STEP 3151
 
 SOLVING FOR HEAD 

 NO OUTPUT CONTROL FOR STRESS PERIOD    2   TIME STEP 3152
 
 SOLVING FOR HEAD 

 NO OUTPUT CONTROL FOR STRESS PERIOD    2   TIME STEP 3153
 
 SOLVING FOR HEAD 

 NO OUTPUT CONTROL FOR STRESS PERIOD    2   TIME STEP 3154
 
 SOLVING FOR HEAD 

 NO OUTPUT CONTROL FOR STRESS PERIOD    2   TIME STEP 3155
 
 SOLVING FOR HEAD 

 NO OUTPUT CONTROL FOR STRESS PERIOD    2   TIME STEP 3156
 
 SOLVING FOR HEAD 

 NO OUTPUT CONTROL FOR STRESS PERIOD    2   TIME STEP 3157
 
 SOLVING FOR HEAD 

 NO OUTPUT CONTROL FOR STRESS PERIOD    2   TIME STEP 3158
 
 SOLVING FOR HEAD 

 NO OUTPUT CONTROL FOR STRESS PERIOD    2   TIME STEP 3159
 
 SOLVING FOR HEAD 

 NO OUTPUT CONTROL FOR STRESS PERIOD    2   TIME STEP 3160
 
 SOLVING FOR HEAD 

 NO OUTPUT CONTROL FOR STRESS PERIOD    2   TIME STEP 3161
 
 SOLVING FOR HEAD 

 NO OUTPUT CONTROL FOR STRESS PERIOD    2   TIME STEP 3162
 
 SOLVING FOR HEAD 

 NO OUTPUT CONTROL FOR STRESS PERIOD    2   TIME STEP 3163
 
 SOLVING FOR HEAD 

 NO OUTPUT CONTROL FOR STRESS PERIOD    2   TIME STEP 3164
 
 SOLVING FOR HEAD 

 NO OUTPUT CONTROL FOR STRESS PERIOD    2   TIME STEP 3165
 
 SOLVING FOR HEAD 

 NO OUTPUT CONTROL FOR STRESS PERIOD    2   TIME STEP 3166
 
 SOLVING FOR HEAD 

 NO OUTPUT CONTROL FOR STRESS PERIOD    2   TIME STEP 3167
 
 SOLVING FOR HEAD 

 NO OUTPUT CONTROL FOR STRESS PERIOD    2   TIME STEP 3168
 
 SOLVING FOR HEAD 

 NO OUTPUT CONTROL FOR STRESS PERIOD    2   TIME STEP 3169
 
 SOLVING FOR HEAD 

 NO OUTPUT CONTROL FOR STRESS PERIOD    2   TIME STEP 3170
 
 SOLVING FOR HEAD 

 NO OUTPUT CONTROL FOR STRESS PERIOD    2   TIME STEP 3171
 
 SOLVING FOR HEAD 

 NO OUTPUT CONTROL FOR STRESS PERIOD    2   TIME STEP 3172
 
 SOLVING FOR HEAD 

 NO OUTPUT CONTROL FOR STRESS PERIOD    2   TIME STEP 3173
 
 SOLVING FOR HEAD 

 NO OUTPUT CONTROL FOR STRESS PERIOD    2   TIME STEP 3174
 
 SOLVING FOR HEAD 

 NO OUTPUT CONTROL FOR STRESS PERIOD    2   TIME STEP 3175
 
 SOLVING FOR HEAD 

 NO OUTPUT CONTROL FOR STRESS PERIOD    2   TIME STEP 3176
 
 SOLVING FOR HEAD 

 NO OUTPUT CONTROL FOR STRESS PERIOD    2   TIME STEP 3177
 
 SOLVING FOR HEAD 

 NO OUTPUT CONTROL FOR STRESS PERIOD    2   TIME STEP 3178
 
 SOLVING FOR HEAD 

 NO OUTPUT CONTROL FOR STRESS PERIOD    2   TIME STEP 3179
 
 SOLVING FOR HEAD 

 NO OUTPUT CONTROL FOR STRESS PERIOD    2   TIME STEP 3180
 
 SOLVING FOR HEAD 

 NO OUTPUT CONTROL FOR STRESS PERIOD    2   TIME STEP 3181
 
 SOLVING FOR HEAD 

 NO OUTPUT CONTROL FOR STRESS PERIOD    2   TIME STEP 3182
 
 SOLVING FOR HEAD 

 NO OUTPUT CONTROL FOR STRESS PERIOD    2   TIME STEP 3183
 
 SOLVING FOR HEAD 

 NO OUTPUT CONTROL FOR STRESS PERIOD    2   TIME STEP 3184
 
 SOLVING FOR HEAD 

 NO OUTPUT CONTROL FOR STRESS PERIOD    2   TIME STEP 3185
 
 SOLVING FOR HEAD 

 NO OUTPUT CONTROL FOR STRESS PERIOD    2   TIME STEP 3186
 
 SOLVING FOR HEAD 

 NO OUTPUT CONTROL FOR STRESS PERIOD    2   TIME STEP 3187
 
 SOLVING FOR HEAD 

 NO OUTPUT CONTROL FOR STRESS PERIOD    2   TIME STEP 3188
 
 SOLVING FOR HEAD 

 NO OUTPUT CONTROL FOR STRESS PERIOD    2   TIME STEP 3189
 
 SOLVING FOR HEAD 

 NO OUTPUT CONTROL FOR STRESS PERIOD    2   TIME STEP 3190
 
 SOLVING FOR HEAD 

 NO OUTPUT CONTROL FOR STRESS PERIOD    2   TIME STEP 3191
 
 SOLVING FOR HEAD 

 NO OUTPUT CONTROL FOR STRESS PERIOD    2   TIME STEP 3192
 
 SOLVING FOR HEAD 

 NO OUTPUT CONTROL FOR STRESS PERIOD    2   TIME STEP 3193
 
 SOLVING FOR HEAD 

 NO OUTPUT CONTROL FOR STRESS PERIOD    2   TIME STEP 3194
 
 SOLVING FOR HEAD 

 NO OUTPUT CONTROL FOR STRESS PERIOD    2   TIME STEP 3195
 
 SOLVING FOR HEAD 

 NO OUTPUT CONTROL FOR STRESS PERIOD    2   TIME STEP 3196
 
 SOLVING FOR HEAD 

 NO OUTPUT CONTROL FOR STRESS PERIOD    2   TIME STEP 3197
 
 SOLVING FOR HEAD 

 NO OUTPUT CONTROL FOR STRESS PERIOD    2   TIME STEP 3198
 
 SOLVING FOR HEAD 

 NO OUTPUT CONTROL FOR STRESS PERIOD    2   TIME STEP 3199
 
 SOLVING FOR HEAD 

 NO OUTPUT CONTROL FOR STRESS PERIOD    2   TIME STEP 3200
 
 SOLVING FOR HEAD 

 NO OUTPUT CONTROL FOR STRESS PERIOD    2   TIME STEP 3201
 
 SOLVING FOR HEAD 

 NO OUTPUT CONTROL FOR STRESS PERIOD    2   TIME STEP 3202
 
 SOLVING FOR HEAD 

 NO OUTPUT CONTROL FOR STRESS PERIOD    2   TIME STEP 3203
 
 SOLVING FOR HEAD 

 NO OUTPUT CONTROL FOR STRESS PERIOD    2   TIME STEP 3204
 
 SOLVING FOR HEAD 

 NO OUTPUT CONTROL FOR STRESS PERIOD    2   TIME STEP 3205
 
 SOLVING FOR HEAD 

 NO OUTPUT CONTROL FOR STRESS PERIOD    2   TIME STEP 3206
 
 SOLVING FOR HEAD 

 NO OUTPUT CONTROL FOR STRESS PERIOD    2   TIME STEP 3207
 
 SOLVING FOR HEAD 

 NO OUTPUT CONTROL FOR STRESS PERIOD    2   TIME STEP 3208
 
 SOLVING FOR HEAD 

 NO OUTPUT CONTROL FOR STRESS PERIOD    2   TIME STEP 3209
 
 SOLVING FOR HEAD 

 NO OUTPUT CONTROL FOR STRESS PERIOD    2   TIME STEP 3210
 
 SOLVING FOR HEAD 

 NO OUTPUT CONTROL FOR STRESS PERIOD    2   TIME STEP 3211
 
 SOLVING FOR HEAD 

 NO OUTPUT CONTROL FOR STRESS PERIOD    2   TIME STEP 3212
 
 SOLVING FOR HEAD 

 NO OUTPUT CONTROL FOR STRESS PERIOD    2   TIME STEP 3213
 
 SOLVING FOR HEAD 

 NO OUTPUT CONTROL FOR STRESS PERIOD    2   TIME STEP 3214
 
 SOLVING FOR HEAD 

 NO OUTPUT CONTROL FOR STRESS PERIOD    2   TIME STEP 3215
 
 SOLVING FOR HEAD 

 NO OUTPUT CONTROL FOR STRESS PERIOD    2   TIME STEP 3216
 
 SOLVING FOR HEAD 

 NO OUTPUT CONTROL FOR STRESS PERIOD    2   TIME STEP 3217
 
 SOLVING FOR HEAD 

 NO OUTPUT CONTROL FOR STRESS PERIOD    2   TIME STEP 3218
 
 SOLVING FOR HEAD 

 NO OUTPUT CONTROL FOR STRESS PERIOD    2   TIME STEP 3219
 
 SOLVING FOR HEAD 

 NO OUTPUT CONTROL FOR STRESS PERIOD    2   TIME STEP 3220
 
 SOLVING FOR HEAD 

 NO OUTPUT CONTROL FOR STRESS PERIOD    2   TIME STEP 3221
 
 SOLVING FOR HEAD 

 NO OUTPUT CONTROL FOR STRESS PERIOD    2   TIME STEP 3222
 
 SOLVING FOR HEAD 

 NO OUTPUT CONTROL FOR STRESS PERIOD    2   TIME STEP 3223
 
 SOLVING FOR HEAD 

 NO OUTPUT CONTROL FOR STRESS PERIOD    2   TIME STEP 3224
 
 SOLVING FOR HEAD 

 NO OUTPUT CONTROL FOR STRESS PERIOD    2   TIME STEP 3225
 
 SOLVING FOR HEAD 

 NO OUTPUT CONTROL FOR STRESS PERIOD    2   TIME STEP 3226
 
 SOLVING FOR HEAD 

 NO OUTPUT CONTROL FOR STRESS PERIOD    2   TIME STEP 3227
 
 SOLVING FOR HEAD 

 NO OUTPUT CONTROL FOR STRESS PERIOD    2   TIME STEP 3228
 
 SOLVING FOR HEAD 

 NO OUTPUT CONTROL FOR STRESS PERIOD    2   TIME STEP 3229
 
 SOLVING FOR HEAD 

 NO OUTPUT CONTROL FOR STRESS PERIOD    2   TIME STEP 3230
 
 SOLVING FOR HEAD 

 NO OUTPUT CONTROL FOR STRESS PERIOD    2   TIME STEP 3231
 
 SOLVING FOR HEAD 

 NO OUTPUT CONTROL FOR STRESS PERIOD    2   TIME STEP 3232
 
 SOLVING FOR HEAD 

 NO OUTPUT CONTROL FOR STRESS PERIOD    2   TIME STEP 3233
 
 SOLVING FOR HEAD 

 NO OUTPUT CONTROL FOR STRESS PERIOD    2   TIME STEP 3234
 
 SOLVING FOR HEAD 

 NO OUTPUT CONTROL FOR STRESS PERIOD    2   TIME STEP 3235
 
 SOLVING FOR HEAD 

 NO OUTPUT CONTROL FOR STRESS PERIOD    2   TIME STEP 3236
 
 SOLVING FOR HEAD 

 NO OUTPUT CONTROL FOR STRESS PERIOD    2   TIME STEP 3237
 
 SOLVING FOR HEAD 

 NO OUTPUT CONTROL FOR STRESS PERIOD    2   TIME STEP 3238
 
 SOLVING FOR HEAD 

 NO OUTPUT CONTROL FOR STRESS PERIOD    2   TIME STEP 3239
 
 SOLVING FOR HEAD 

 NO OUTPUT CONTROL FOR STRESS PERIOD    2   TIME STEP 3240
 
 SOLVING FOR HEAD 

 NO OUTPUT CONTROL FOR STRESS PERIOD    2   TIME STEP 3241
 
 SOLVING FOR HEAD 

 NO OUTPUT CONTROL FOR STRESS PERIOD    2   TIME STEP 3242
 
 SOLVING FOR HEAD 

 NO OUTPUT CONTROL FOR STRESS PERIOD    2   TIME STEP 3243
 
 SOLVING FOR HEAD 

 NO OUTPUT CONTROL FOR STRESS PERIOD    2   TIME STEP 3244
 
 SOLVING FOR HEAD 

 NO OUTPUT CONTROL FOR STRESS PERIOD    2   TIME STEP 3245
 
 SOLVING FOR HEAD 

 NO OUTPUT CONTROL FOR STRESS PERIOD    2   TIME STEP 3246
 
 SOLVING FOR HEAD 

 NO OUTPUT CONTROL FOR STRESS PERIOD    2   TIME STEP 3247
 
 SOLVING FOR HEAD 

 NO OUTPUT CONTROL FOR STRESS PERIOD    2   TIME STEP 3248
 
 SOLVING FOR HEAD 

 NO OUTPUT CONTROL FOR STRESS PERIOD    2   TIME STEP 3249
 
 SOLVING FOR HEAD 

 NO OUTPUT CONTROL FOR STRESS PERIOD    2   TIME STEP 3250
 
 SOLVING FOR HEAD 

 NO OUTPUT CONTROL FOR STRESS PERIOD    2   TIME STEP 3251
 
 SOLVING FOR HEAD 

 NO OUTPUT CONTROL FOR STRESS PERIOD    2   TIME STEP 3252
 
 SOLVING FOR HEAD 

 NO OUTPUT CONTROL FOR STRESS PERIOD    2   TIME STEP 3253
 
 SOLVING FOR HEAD 

 NO OUTPUT CONTROL FOR STRESS PERIOD    2   TIME STEP 3254
 
 SOLVING FOR HEAD 

 NO OUTPUT CONTROL FOR STRESS PERIOD    2   TIME STEP 3255
 
 SOLVING FOR HEAD 

 NO OUTPUT CONTROL FOR STRESS PERIOD    2   TIME STEP 3256
 
 SOLVING FOR HEAD 

 NO OUTPUT CONTROL FOR STRESS PERIOD    2   TIME STEP 3257
 
 SOLVING FOR HEAD 

 NO OUTPUT CONTROL FOR STRESS PERIOD    2   TIME STEP 3258
 
 SOLVING FOR HEAD 

 NO OUTPUT CONTROL FOR STRESS PERIOD    2   TIME STEP 3259
 
 SOLVING FOR HEAD 

 NO OUTPUT CONTROL FOR STRESS PERIOD    2   TIME STEP 3260
 
 SOLVING FOR HEAD 

 NO OUTPUT CONTROL FOR STRESS PERIOD    2   TIME STEP 3261
 
 SOLVING FOR HEAD 

 NO OUTPUT CONTROL FOR STRESS PERIOD    2   TIME STEP 3262
 
 SOLVING FOR HEAD 

 NO OUTPUT CONTROL FOR STRESS PERIOD    2   TIME STEP 3263
 
 SOLVING FOR HEAD 

 NO OUTPUT CONTROL FOR STRESS PERIOD    2   TIME STEP 3264
 
 SOLVING FOR HEAD 

 NO OUTPUT CONTROL FOR STRESS PERIOD    2   TIME STEP 3265
 
 SOLVING FOR HEAD 

 NO OUTPUT CONTROL FOR STRESS PERIOD    2   TIME STEP 3266
 
 SOLVING FOR HEAD 

 NO OUTPUT CONTROL FOR STRESS PERIOD    2   TIME STEP 3267
 
 SOLVING FOR HEAD 

 NO OUTPUT CONTROL FOR STRESS PERIOD    2   TIME STEP 3268
 
 SOLVING FOR HEAD 

 NO OUTPUT CONTROL FOR STRESS PERIOD    2   TIME STEP 3269
 
 SOLVING FOR HEAD 

 NO OUTPUT CONTROL FOR STRESS PERIOD    2   TIME STEP 3270
 
 SOLVING FOR HEAD 

 NO OUTPUT CONTROL FOR STRESS PERIOD    2   TIME STEP 3271
 
 SOLVING FOR HEAD 

 NO OUTPUT CONTROL FOR STRESS PERIOD    2   TIME STEP 3272
 
 SOLVING FOR HEAD 

 NO OUTPUT CONTROL FOR STRESS PERIOD    2   TIME STEP 3273
 
 SOLVING FOR HEAD 

 NO OUTPUT CONTROL FOR STRESS PERIOD    2   TIME STEP 3274
 
 SOLVING FOR HEAD 

 NO OUTPUT CONTROL FOR STRESS PERIOD    2   TIME STEP 3275
 
 SOLVING FOR HEAD 

 NO OUTPUT CONTROL FOR STRESS PERIOD    2   TIME STEP 3276
 
 SOLVING FOR HEAD 

 NO OUTPUT CONTROL FOR STRESS PERIOD    2   TIME STEP 3277
 
 SOLVING FOR HEAD 

 NO OUTPUT CONTROL FOR STRESS PERIOD    2   TIME STEP 3278
 
 SOLVING FOR HEAD 

 NO OUTPUT CONTROL FOR STRESS PERIOD    2   TIME STEP 3279
 
 SOLVING FOR HEAD 

 NO OUTPUT CONTROL FOR STRESS PERIOD    2   TIME STEP 3280
 
 SOLVING FOR HEAD 

 NO OUTPUT CONTROL FOR STRESS PERIOD    2   TIME STEP 3281
 
 SOLVING FOR HEAD 

 NO OUTPUT CONTROL FOR STRESS PERIOD    2   TIME STEP 3282
 
 SOLVING FOR HEAD 

 NO OUTPUT CONTROL FOR STRESS PERIOD    2   TIME STEP 3283
 
 SOLVING FOR HEAD 

 NO OUTPUT CONTROL FOR STRESS PERIOD    2   TIME STEP 3284
 
 SOLVING FOR HEAD 

 NO OUTPUT CONTROL FOR STRESS PERIOD    2   TIME STEP 3285
 
 SOLVING FOR HEAD 

 NO OUTPUT CONTROL FOR STRESS PERIOD    2   TIME STEP 3286
 
 SOLVING FOR HEAD 

 NO OUTPUT CONTROL FOR STRESS PERIOD    2   TIME STEP 3287
 
 SOLVING FOR HEAD 

 NO OUTPUT CONTROL FOR STRESS PERIOD    2   TIME STEP 3288
 
 SOLVING FOR HEAD 

 NO OUTPUT CONTROL FOR STRESS PERIOD    2   TIME STEP 3289
 
 SOLVING FOR HEAD 

 NO OUTPUT CONTROL FOR STRESS PERIOD    2   TIME STEP 3290
 
 SOLVING FOR HEAD 

 NO OUTPUT CONTROL FOR STRESS PERIOD    2   TIME STEP 3291
 
 SOLVING FOR HEAD 

 NO OUTPUT CONTROL FOR STRESS PERIOD    2   TIME STEP 3292
 
 SOLVING FOR HEAD 

 NO OUTPUT CONTROL FOR STRESS PERIOD    2   TIME STEP 3293
 
 SOLVING FOR HEAD 

 NO OUTPUT CONTROL FOR STRESS PERIOD    2   TIME STEP 3294
 
 SOLVING FOR HEAD 

 NO OUTPUT CONTROL FOR STRESS PERIOD    2   TIME STEP 3295
 
 SOLVING FOR HEAD 

 NO OUTPUT CONTROL FOR STRESS PERIOD    2   TIME STEP 3296
 
 SOLVING FOR HEAD 

 NO OUTPUT CONTROL FOR STRESS PERIOD    2   TIME STEP 3297
 
 SOLVING FOR HEAD 

 NO OUTPUT CONTROL FOR STRESS PERIOD    2   TIME STEP 3298
 
 SOLVING FOR HEAD 

 NO OUTPUT CONTROL FOR STRESS PERIOD    2   TIME STEP 3299
 
 SOLVING FOR HEAD 

 NO OUTPUT CONTROL FOR STRESS PERIOD    2   TIME STEP 3300
 
 SOLVING FOR HEAD 

 NO OUTPUT CONTROL FOR STRESS PERIOD    2   TIME STEP 3301
 
 SOLVING FOR HEAD 

 NO OUTPUT CONTROL FOR STRESS PERIOD    2   TIME STEP 3302
 
 SOLVING FOR HEAD 

 NO OUTPUT CONTROL FOR STRESS PERIOD    2   TIME STEP 3303
 
 SOLVING FOR HEAD 

 NO OUTPUT CONTROL FOR STRESS PERIOD    2   TIME STEP 3304
 
 SOLVING FOR HEAD 

 NO OUTPUT CONTROL FOR STRESS PERIOD    2   TIME STEP 3305
 
 SOLVING FOR HEAD 

 NO OUTPUT CONTROL FOR STRESS PERIOD    2   TIME STEP 3306
 
 SOLVING FOR HEAD 

 NO OUTPUT CONTROL FOR STRESS PERIOD    2   TIME STEP 3307
 
 SOLVING FOR HEAD 

 NO OUTPUT CONTROL FOR STRESS PERIOD    2   TIME STEP 3308
 
 SOLVING FOR HEAD 

 NO OUTPUT CONTROL FOR STRESS PERIOD    2   TIME STEP 3309
 
 SOLVING FOR HEAD 

 NO OUTPUT CONTROL FOR STRESS PERIOD    2   TIME STEP 3310
 
 SOLVING FOR HEAD 

 NO OUTPUT CONTROL FOR STRESS PERIOD    2   TIME STEP 3311
 
 SOLVING FOR HEAD 

 NO OUTPUT CONTROL FOR STRESS PERIOD    2   TIME STEP 3312
 
 SOLVING FOR HEAD 

 NO OUTPUT CONTROL FOR STRESS PERIOD    2   TIME STEP 3313
 
 SOLVING FOR HEAD 

 NO OUTPUT CONTROL FOR STRESS PERIOD    2   TIME STEP 3314
 
 SOLVING FOR HEAD 

 NO OUTPUT CONTROL FOR STRESS PERIOD    2   TIME STEP 3315
 
 SOLVING FOR HEAD 

 NO OUTPUT CONTROL FOR STRESS PERIOD    2   TIME STEP 3316
 
 SOLVING FOR HEAD 

 NO OUTPUT CONTROL FOR STRESS PERIOD    2   TIME STEP 3317
 
 SOLVING FOR HEAD 

 NO OUTPUT CONTROL FOR STRESS PERIOD    2   TIME STEP 3318
 
 SOLVING FOR HEAD 

 NO OUTPUT CONTROL FOR STRESS PERIOD    2   TIME STEP 3319
 
 SOLVING FOR HEAD 

 NO OUTPUT CONTROL FOR STRESS PERIOD    2   TIME STEP 3320
 
 SOLVING FOR HEAD 

 NO OUTPUT CONTROL FOR STRESS PERIOD    2   TIME STEP 3321
 
 SOLVING FOR HEAD 

 NO OUTPUT CONTROL FOR STRESS PERIOD    2   TIME STEP 3322
 
 SOLVING FOR HEAD 

 NO OUTPUT CONTROL FOR STRESS PERIOD    2   TIME STEP 3323
 
 SOLVING FOR HEAD 

 NO OUTPUT CONTROL FOR STRESS PERIOD    2   TIME STEP 3324
 
 SOLVING FOR HEAD 

 NO OUTPUT CONTROL FOR STRESS PERIOD    2   TIME STEP 3325
 
 SOLVING FOR HEAD 

 NO OUTPUT CONTROL FOR STRESS PERIOD    2   TIME STEP 3326
 
 SOLVING FOR HEAD 

 NO OUTPUT CONTROL FOR STRESS PERIOD    2   TIME STEP 3327
 
 SOLVING FOR HEAD 

 NO OUTPUT CONTROL FOR STRESS PERIOD    2   TIME STEP 3328
 
 SOLVING FOR HEAD 

 NO OUTPUT CONTROL FOR STRESS PERIOD    2   TIME STEP 3329
 
 SOLVING FOR HEAD 

 NO OUTPUT CONTROL FOR STRESS PERIOD    2   TIME STEP 3330
 
 SOLVING FOR HEAD 

 NO OUTPUT CONTROL FOR STRESS PERIOD    2   TIME STEP 3331
 
 SOLVING FOR HEAD 

 NO OUTPUT CONTROL FOR STRESS PERIOD    2   TIME STEP 3332
 
 SOLVING FOR HEAD 

 NO OUTPUT CONTROL FOR STRESS PERIOD    2   TIME STEP 3333
 
 SOLVING FOR HEAD 

 NO OUTPUT CONTROL FOR STRESS PERIOD    2   TIME STEP 3334
 
 SOLVING FOR HEAD 

 NO OUTPUT CONTROL FOR STRESS PERIOD    2   TIME STEP 3335
 
 SOLVING FOR HEAD 

 NO OUTPUT CONTROL FOR STRESS PERIOD    2   TIME STEP 3336
 
 SOLVING FOR HEAD 

 NO OUTPUT CONTROL FOR STRESS PERIOD    2   TIME STEP 3337
 
 SOLVING FOR HEAD 

 NO OUTPUT CONTROL FOR STRESS PERIOD    2   TIME STEP 3338
 
 SOLVING FOR HEAD 

 NO OUTPUT CONTROL FOR STRESS PERIOD    2   TIME STEP 3339
 
 SOLVING FOR HEAD 

 NO OUTPUT CONTROL FOR STRESS PERIOD    2   TIME STEP 3340
 
 SOLVING FOR HEAD 

 NO OUTPUT CONTROL FOR STRESS PERIOD    2   TIME STEP 3341
 
 SOLVING FOR HEAD 

 NO OUTPUT CONTROL FOR STRESS PERIOD    2   TIME STEP 3342
 
 SOLVING FOR HEAD 

 NO OUTPUT CONTROL FOR STRESS PERIOD    2   TIME STEP 3343
 
 SOLVING FOR HEAD 

 NO OUTPUT CONTROL FOR STRESS PERIOD    2   TIME STEP 3344
 
 SOLVING FOR HEAD 

 NO OUTPUT CONTROL FOR STRESS PERIOD    2   TIME STEP 3345
 
 SOLVING FOR HEAD 

 NO OUTPUT CONTROL FOR STRESS PERIOD    2   TIME STEP 3346
 
 SOLVING FOR HEAD 

 NO OUTPUT CONTROL FOR STRESS PERIOD    2   TIME STEP 3347
 
 SOLVING FOR HEAD 

 NO OUTPUT CONTROL FOR STRESS PERIOD    2   TIME STEP 3348
 
 SOLVING FOR HEAD 

 NO OUTPUT CONTROL FOR STRESS PERIOD    2   TIME STEP 3349
 
 SOLVING FOR HEAD 

 NO OUTPUT CONTROL FOR STRESS PERIOD    2   TIME STEP 3350
 
 SOLVING FOR HEAD 

 NO OUTPUT CONTROL FOR STRESS PERIOD    2   TIME STEP 3351
 
 SOLVING FOR HEAD 

 NO OUTPUT CONTROL FOR STRESS PERIOD    2   TIME STEP 3352
 
 SOLVING FOR HEAD 

 NO OUTPUT CONTROL FOR STRESS PERIOD    2   TIME STEP 3353
 
 SOLVING FOR HEAD 

 NO OUTPUT CONTROL FOR STRESS PERIOD    2   TIME STEP 3354
 
 SOLVING FOR HEAD 

 NO OUTPUT CONTROL FOR STRESS PERIOD    2   TIME STEP 3355
 
 SOLVING FOR HEAD 

 NO OUTPUT CONTROL FOR STRESS PERIOD    2   TIME STEP 3356
 
 SOLVING FOR HEAD 

 NO OUTPUT CONTROL FOR STRESS PERIOD    2   TIME STEP 3357
 
 SOLVING FOR HEAD 

 NO OUTPUT CONTROL FOR STRESS PERIOD    2   TIME STEP 3358
 
 SOLVING FOR HEAD 

 NO OUTPUT CONTROL FOR STRESS PERIOD    2   TIME STEP 3359
 
 SOLVING FOR HEAD 

 NO OUTPUT CONTROL FOR STRESS PERIOD    2   TIME STEP 3360
 
 SOLVING FOR HEAD 

 NO OUTPUT CONTROL FOR STRESS PERIOD    2   TIME STEP 3361
 
 SOLVING FOR HEAD 

 NO OUTPUT CONTROL FOR STRESS PERIOD    2   TIME STEP 3362
 
 SOLVING FOR HEAD 

 NO OUTPUT CONTROL FOR STRESS PERIOD    2   TIME STEP 3363
 
 SOLVING FOR HEAD 

 NO OUTPUT CONTROL FOR STRESS PERIOD    2   TIME STEP 3364
 
 SOLVING FOR HEAD 

 NO OUTPUT CONTROL FOR STRESS PERIOD    2   TIME STEP 3365
 
 SOLVING FOR HEAD 

 NO OUTPUT CONTROL FOR STRESS PERIOD    2   TIME STEP 3366
 
 SOLVING FOR HEAD 

 NO OUTPUT CONTROL FOR STRESS PERIOD    2   TIME STEP 3367
 
 SOLVING FOR HEAD 

 NO OUTPUT CONTROL FOR STRESS PERIOD    2   TIME STEP 3368
 
 SOLVING FOR HEAD 

 NO OUTPUT CONTROL FOR STRESS PERIOD    2   TIME STEP 3369
 
 SOLVING FOR HEAD 

 NO OUTPUT CONTROL FOR STRESS PERIOD    2   TIME STEP 3370
 
 SOLVING FOR HEAD 

 NO OUTPUT CONTROL FOR STRESS PERIOD    2   TIME STEP 3371
 
 SOLVING FOR HEAD 

 NO OUTPUT CONTROL FOR STRESS PERIOD    2   TIME STEP 3372
 
 SOLVING FOR HEAD 

 NO OUTPUT CONTROL FOR STRESS PERIOD    2   TIME STEP 3373
 
 SOLVING FOR HEAD 

 NO OUTPUT CONTROL FOR STRESS PERIOD    2   TIME STEP 3374
 
 SOLVING FOR HEAD 

 NO OUTPUT CONTROL FOR STRESS PERIOD    2   TIME STEP 3375
 
 SOLVING FOR HEAD 

 NO OUTPUT CONTROL FOR STRESS PERIOD    2   TIME STEP 3376
 
 SOLVING FOR HEAD 

 NO OUTPUT CONTROL FOR STRESS PERIOD    2   TIME STEP 3377
 
 SOLVING FOR HEAD 

 NO OUTPUT CONTROL FOR STRESS PERIOD    2   TIME STEP 3378
 
 SOLVING FOR HEAD 

 NO OUTPUT CONTROL FOR STRESS PERIOD    2   TIME STEP 3379
 
 SOLVING FOR HEAD 

 NO OUTPUT CONTROL FOR STRESS PERIOD    2   TIME STEP 3380
 
 SOLVING FOR HEAD 

 NO OUTPUT CONTROL FOR STRESS PERIOD    2   TIME STEP 3381
 
 SOLVING FOR HEAD 

 NO OUTPUT CONTROL FOR STRESS PERIOD    2   TIME STEP 3382
 
 SOLVING FOR HEAD 

 NO OUTPUT CONTROL FOR STRESS PERIOD    2   TIME STEP 3383
 
 SOLVING FOR HEAD 

 NO OUTPUT CONTROL FOR STRESS PERIOD    2   TIME STEP 3384
 
 SOLVING FOR HEAD 

 NO OUTPUT CONTROL FOR STRESS PERIOD    2   TIME STEP 3385
 
 SOLVING FOR HEAD 

 NO OUTPUT CONTROL FOR STRESS PERIOD    2   TIME STEP 3386
 
 SOLVING FOR HEAD 

 NO OUTPUT CONTROL FOR STRESS PERIOD    2   TIME STEP 3387
 
 SOLVING FOR HEAD 

 NO OUTPUT CONTROL FOR STRESS PERIOD    2   TIME STEP 3388
 
 SOLVING FOR HEAD 

 NO OUTPUT CONTROL FOR STRESS PERIOD    2   TIME STEP 3389
 
 SOLVING FOR HEAD 

 NO OUTPUT CONTROL FOR STRESS PERIOD    2   TIME STEP 3390
 
 SOLVING FOR HEAD 

 NO OUTPUT CONTROL FOR STRESS PERIOD    2   TIME STEP 3391
 
 SOLVING FOR HEAD 

 NO OUTPUT CONTROL FOR STRESS PERIOD    2   TIME STEP 3392
 
 SOLVING FOR HEAD 

 NO OUTPUT CONTROL FOR STRESS PERIOD    2   TIME STEP 3393
 
 SOLVING FOR HEAD 

 NO OUTPUT CONTROL FOR STRESS PERIOD    2   TIME STEP 3394
 
 SOLVING FOR HEAD 

 NO OUTPUT CONTROL FOR STRESS PERIOD    2   TIME STEP 3395
 
 SOLVING FOR HEAD 

 NO OUTPUT CONTROL FOR STRESS PERIOD    2   TIME STEP 3396
 
 SOLVING FOR HEAD 

 NO OUTPUT CONTROL FOR STRESS PERIOD    2   TIME STEP 3397
 
 SOLVING FOR HEAD 

 NO OUTPUT CONTROL FOR STRESS PERIOD    2   TIME STEP 3398
 
 SOLVING FOR HEAD 

 NO OUTPUT CONTROL FOR STRESS PERIOD    2   TIME STEP 3399
 
 SOLVING FOR HEAD 

 NO OUTPUT CONTROL FOR STRESS PERIOD    2   TIME STEP 3400
 
 SOLVING FOR HEAD 

 NO OUTPUT CONTROL FOR STRESS PERIOD    2   TIME STEP 3401
 
 SOLVING FOR HEAD 

 NO OUTPUT CONTROL FOR STRESS PERIOD    2   TIME STEP 3402
 
 SOLVING FOR HEAD 

 NO OUTPUT CONTROL FOR STRESS PERIOD    2   TIME STEP 3403
 
 SOLVING FOR HEAD 

 NO OUTPUT CONTROL FOR STRESS PERIOD    2   TIME STEP 3404
 
 SOLVING FOR HEAD 

 NO OUTPUT CONTROL FOR STRESS PERIOD    2   TIME STEP 3405
 
 SOLVING FOR HEAD 

 NO OUTPUT CONTROL FOR STRESS PERIOD    2   TIME STEP 3406
 
 SOLVING FOR HEAD 

 NO OUTPUT CONTROL FOR STRESS PERIOD    2   TIME STEP 3407
 
 SOLVING FOR HEAD 

 NO OUTPUT CONTROL FOR STRESS PERIOD    2   TIME STEP 3408
 
 SOLVING FOR HEAD 

 NO OUTPUT CONTROL FOR STRESS PERIOD    2   TIME STEP 3409
 
 SOLVING FOR HEAD 

 NO OUTPUT CONTROL FOR STRESS PERIOD    2   TIME STEP 3410
 
 SOLVING FOR HEAD 

 NO OUTPUT CONTROL FOR STRESS PERIOD    2   TIME STEP 3411
 
 SOLVING FOR HEAD 

 NO OUTPUT CONTROL FOR STRESS PERIOD    2   TIME STEP 3412
 
 SOLVING FOR HEAD 

 NO OUTPUT CONTROL FOR STRESS PERIOD    2   TIME STEP 3413
 
 SOLVING FOR HEAD 

 NO OUTPUT CONTROL FOR STRESS PERIOD    2   TIME STEP 3414
 
 SOLVING FOR HEAD 

 NO OUTPUT CONTROL FOR STRESS PERIOD    2   TIME STEP 3415
 
 SOLVING FOR HEAD 

 NO OUTPUT CONTROL FOR STRESS PERIOD    2   TIME STEP 3416
 
 SOLVING FOR HEAD 

 NO OUTPUT CONTROL FOR STRESS PERIOD    2   TIME STEP 3417
 
 SOLVING FOR HEAD 

 NO OUTPUT CONTROL FOR STRESS PERIOD    2   TIME STEP 3418
 
 SOLVING FOR HEAD 

 NO OUTPUT CONTROL FOR STRESS PERIOD    2   TIME STEP 3419
 
 SOLVING FOR HEAD 

 NO OUTPUT CONTROL FOR STRESS PERIOD    2   TIME STEP 3420
 
 SOLVING FOR HEAD 

 NO OUTPUT CONTROL FOR STRESS PERIOD    2   TIME STEP 3421
 
 SOLVING FOR HEAD 

 NO OUTPUT CONTROL FOR STRESS PERIOD    2   TIME STEP 3422
 
 SOLVING FOR HEAD 

 NO OUTPUT CONTROL FOR STRESS PERIOD    2   TIME STEP 3423
 
 SOLVING FOR HEAD 

 NO OUTPUT CONTROL FOR STRESS PERIOD    2   TIME STEP 3424
 
 SOLVING FOR HEAD 

 NO OUTPUT CONTROL FOR STRESS PERIOD    2   TIME STEP 3425
 
 SOLVING FOR HEAD 

 NO OUTPUT CONTROL FOR STRESS PERIOD    2   TIME STEP 3426
 
 SOLVING FOR HEAD 

 NO OUTPUT CONTROL FOR STRESS PERIOD    2   TIME STEP 3427
 
 SOLVING FOR HEAD 

 NO OUTPUT CONTROL FOR STRESS PERIOD    2   TIME STEP 3428
 
 SOLVING FOR HEAD 

 NO OUTPUT CONTROL FOR STRESS PERIOD    2   TIME STEP 3429
 
 SOLVING FOR HEAD 

 NO OUTPUT CONTROL FOR STRESS PERIOD    2   TIME STEP 3430
 
 SOLVING FOR HEAD 

 NO OUTPUT CONTROL FOR STRESS PERIOD    2   TIME STEP 3431
 
 SOLVING FOR HEAD 

 NO OUTPUT CONTROL FOR STRESS PERIOD    2   TIME STEP 3432
 
 SOLVING FOR HEAD 

 NO OUTPUT CONTROL FOR STRESS PERIOD    2   TIME STEP 3433
 
 SOLVING FOR HEAD 

 NO OUTPUT CONTROL FOR STRESS PERIOD    2   TIME STEP 3434
 
 SOLVING FOR HEAD 

 NO OUTPUT CONTROL FOR STRESS PERIOD    2   TIME STEP 3435
 
 SOLVING FOR HEAD 

 NO OUTPUT CONTROL FOR STRESS PERIOD    2   TIME STEP 3436
 
 SOLVING FOR HEAD 

 NO OUTPUT CONTROL FOR STRESS PERIOD    2   TIME STEP 3437
 
 SOLVING FOR HEAD 

 NO OUTPUT CONTROL FOR STRESS PERIOD    2   TIME STEP 3438
 
 SOLVING FOR HEAD 

 NO OUTPUT CONTROL FOR STRESS PERIOD    2   TIME STEP 3439
 
 SOLVING FOR HEAD 

 NO OUTPUT CONTROL FOR STRESS PERIOD    2   TIME STEP 3440
 
 SOLVING FOR HEAD 

 NO OUTPUT CONTROL FOR STRESS PERIOD    2   TIME STEP 3441
 
 SOLVING FOR HEAD 

 NO OUTPUT CONTROL FOR STRESS PERIOD    2   TIME STEP 3442
 
 SOLVING FOR HEAD 

 NO OUTPUT CONTROL FOR STRESS PERIOD    2   TIME STEP 3443
 
 SOLVING FOR HEAD 

 NO OUTPUT CONTROL FOR STRESS PERIOD    2   TIME STEP 3444
 
 SOLVING FOR HEAD 

 NO OUTPUT CONTROL FOR STRESS PERIOD    2   TIME STEP 3445
 
 SOLVING FOR HEAD 

 NO OUTPUT CONTROL FOR STRESS PERIOD    2   TIME STEP 3446
 
 SOLVING FOR HEAD 

 NO OUTPUT CONTROL FOR STRESS PERIOD    2   TIME STEP 3447
 
 SOLVING FOR HEAD 

 NO OUTPUT CONTROL FOR STRESS PERIOD    2   TIME STEP 3448
 
 SOLVING FOR HEAD 

 NO OUTPUT CONTROL FOR STRESS PERIOD    2   TIME STEP 3449
 
 SOLVING FOR HEAD 

 NO OUTPUT CONTROL FOR STRESS PERIOD    2   TIME STEP 3450
 
 SOLVING FOR HEAD 

 NO OUTPUT CONTROL FOR STRESS PERIOD    2   TIME STEP 3451
 
 SOLVING FOR HEAD 

 NO OUTPUT CONTROL FOR STRESS PERIOD    2   TIME STEP 3452
 
 SOLVING FOR HEAD 

 NO OUTPUT CONTROL FOR STRESS PERIOD    2   TIME STEP 3453
 
 SOLVING FOR HEAD 

 NO OUTPUT CONTROL FOR STRESS PERIOD    2   TIME STEP 3454
 
 SOLVING FOR HEAD 

 NO OUTPUT CONTROL FOR STRESS PERIOD    2   TIME STEP 3455
 
 SOLVING FOR HEAD 

 NO OUTPUT CONTROL FOR STRESS PERIOD    2   TIME STEP 3456
 
 SOLVING FOR HEAD 

 NO OUTPUT CONTROL FOR STRESS PERIOD    2   TIME STEP 3457
 
 SOLVING FOR HEAD 

 NO OUTPUT CONTROL FOR STRESS PERIOD    2   TIME STEP 3458
 
 SOLVING FOR HEAD 

 NO OUTPUT CONTROL FOR STRESS PERIOD    2   TIME STEP 3459
 
 SOLVING FOR HEAD 

 NO OUTPUT CONTROL FOR STRESS PERIOD    2   TIME STEP 3460
 
 SOLVING FOR HEAD 

 NO OUTPUT CONTROL FOR STRESS PERIOD    2   TIME STEP 3461
 
 SOLVING FOR HEAD 

 NO OUTPUT CONTROL FOR STRESS PERIOD    2   TIME STEP 3462
 
 SOLVING FOR HEAD 

 NO OUTPUT CONTROL FOR STRESS PERIOD    2   TIME STEP 3463
 
 SOLVING FOR HEAD 

 NO OUTPUT CONTROL FOR STRESS PERIOD    2   TIME STEP 3464
 
 SOLVING FOR HEAD 

 NO OUTPUT CONTROL FOR STRESS PERIOD    2   TIME STEP 3465
 
 SOLVING FOR HEAD 

 NO OUTPUT CONTROL FOR STRESS PERIOD    2   TIME STEP 3466
 
 SOLVING FOR HEAD 

 NO OUTPUT CONTROL FOR STRESS PERIOD    2   TIME STEP 3467
 
 SOLVING FOR HEAD 

 NO OUTPUT CONTROL FOR STRESS PERIOD    2   TIME STEP 3468
 
 SOLVING FOR HEAD 

 NO OUTPUT CONTROL FOR STRESS PERIOD    2   TIME STEP 3469
 
 SOLVING FOR HEAD 

 NO OUTPUT CONTROL FOR STRESS PERIOD    2   TIME STEP 3470
 
 SOLVING FOR HEAD 

 NO OUTPUT CONTROL FOR STRESS PERIOD    2   TIME STEP 3471
 
 SOLVING FOR HEAD 

 NO OUTPUT CONTROL FOR STRESS PERIOD    2   TIME STEP 3472
 
 SOLVING FOR HEAD 

 NO OUTPUT CONTROL FOR STRESS PERIOD    2   TIME STEP 3473
 
 SOLVING FOR HEAD 

 NO OUTPUT CONTROL FOR STRESS PERIOD    2   TIME STEP 3474
 
 SOLVING FOR HEAD 

 NO OUTPUT CONTROL FOR STRESS PERIOD    2   TIME STEP 3475
 
 SOLVING FOR HEAD 

 NO OUTPUT CONTROL FOR STRESS PERIOD    2   TIME STEP 3476
 
 SOLVING FOR HEAD 

 NO OUTPUT CONTROL FOR STRESS PERIOD    2   TIME STEP 3477
 
 SOLVING FOR HEAD 

 NO OUTPUT CONTROL FOR STRESS PERIOD    2   TIME STEP 3478
 
 SOLVING FOR HEAD 

 NO OUTPUT CONTROL FOR STRESS PERIOD    2   TIME STEP 3479
 
 SOLVING FOR HEAD 

 NO OUTPUT CONTROL FOR STRESS PERIOD    2   TIME STEP 3480
 
 SOLVING FOR HEAD 

 NO OUTPUT CONTROL FOR STRESS PERIOD    2   TIME STEP 3481
 
 SOLVING FOR HEAD 

 NO OUTPUT CONTROL FOR STRESS PERIOD    2   TIME STEP 3482
 
 SOLVING FOR HEAD 

 NO OUTPUT CONTROL FOR STRESS PERIOD    2   TIME STEP 3483
 
 SOLVING FOR HEAD 

 NO OUTPUT CONTROL FOR STRESS PERIOD    2   TIME STEP 3484
 
 SOLVING FOR HEAD 

 NO OUTPUT CONTROL FOR STRESS PERIOD    2   TIME STEP 3485
 
 SOLVING FOR HEAD 

 NO OUTPUT CONTROL FOR STRESS PERIOD    2   TIME STEP 3486
 
 SOLVING FOR HEAD 

 NO OUTPUT CONTROL FOR STRESS PERIOD    2   TIME STEP 3487
 
 SOLVING FOR HEAD 

 NO OUTPUT CONTROL FOR STRESS PERIOD    2   TIME STEP 3488
 
 SOLVING FOR HEAD 

 NO OUTPUT CONTROL FOR STRESS PERIOD    2   TIME STEP 3489
 
 SOLVING FOR HEAD 

 NO OUTPUT CONTROL FOR STRESS PERIOD    2   TIME STEP 3490
 
 SOLVING FOR HEAD 

 NO OUTPUT CONTROL FOR STRESS PERIOD    2   TIME STEP 3491
 
 SOLVING FOR HEAD 

 NO OUTPUT CONTROL FOR STRESS PERIOD    2   TIME STEP 3492
 
 SOLVING FOR HEAD 

 NO OUTPUT CONTROL FOR STRESS PERIOD    2   TIME STEP 3493
 
 SOLVING FOR HEAD 

 NO OUTPUT CONTROL FOR STRESS PERIOD    2   TIME STEP 3494
 
 SOLVING FOR HEAD 

 NO OUTPUT CONTROL FOR STRESS PERIOD    2   TIME STEP 3495
 
 SOLVING FOR HEAD 

 NO OUTPUT CONTROL FOR STRESS PERIOD    2   TIME STEP 3496
 
 SOLVING FOR HEAD 

 NO OUTPUT CONTROL FOR STRESS PERIOD    2   TIME STEP 3497
 
 SOLVING FOR HEAD 

 NO OUTPUT CONTROL FOR STRESS PERIOD    2   TIME STEP 3498
 
 SOLVING FOR HEAD 

 NO OUTPUT CONTROL FOR STRESS PERIOD    2   TIME STEP 3499
 
 SOLVING FOR HEAD 

 NO OUTPUT CONTROL FOR STRESS PERIOD    2   TIME STEP 3500
 
 SOLVING FOR HEAD 

 NO OUTPUT CONTROL FOR STRESS PERIOD    2   TIME STEP 3501
 
 SOLVING FOR HEAD 

 NO OUTPUT CONTROL FOR STRESS PERIOD    2   TIME STEP 3502
 
 SOLVING FOR HEAD 

 NO OUTPUT CONTROL FOR STRESS PERIOD    2   TIME STEP 3503
 
 SOLVING FOR HEAD 

 NO OUTPUT CONTROL FOR STRESS PERIOD    2   TIME STEP 3504
 
 SOLVING FOR HEAD 

 NO OUTPUT CONTROL FOR STRESS PERIOD    2   TIME STEP 3505
 
 SOLVING FOR HEAD 

 NO OUTPUT CONTROL FOR STRESS PERIOD    2   TIME STEP 3506
 
 SOLVING FOR HEAD 

 NO OUTPUT CONTROL FOR STRESS PERIOD    2   TIME STEP 3507
 
 SOLVING FOR HEAD 

 NO OUTPUT CONTROL FOR STRESS PERIOD    2   TIME STEP 3508
 
 SOLVING FOR HEAD 

 NO OUTPUT CONTROL FOR STRESS PERIOD    2   TIME STEP 3509
 
 SOLVING FOR HEAD 

 NO OUTPUT CONTROL FOR STRESS PERIOD    2   TIME STEP 3510
 
 SOLVING FOR HEAD 

 NO OUTPUT CONTROL FOR STRESS PERIOD    2   TIME STEP 3511
 
 SOLVING FOR HEAD 

 NO OUTPUT CONTROL FOR STRESS PERIOD    2   TIME STEP 3512
 
 SOLVING FOR HEAD 

 NO OUTPUT CONTROL FOR STRESS PERIOD    2   TIME STEP 3513
 
 SOLVING FOR HEAD 

 NO OUTPUT CONTROL FOR STRESS PERIOD    2   TIME STEP 3514
 
 SOLVING FOR HEAD 

 NO OUTPUT CONTROL FOR STRESS PERIOD    2   TIME STEP 3515
 
 SOLVING FOR HEAD 

 NO OUTPUT CONTROL FOR STRESS PERIOD    2   TIME STEP 3516
 
 SOLVING FOR HEAD 

 NO OUTPUT CONTROL FOR STRESS PERIOD    2   TIME STEP 3517
 
 SOLVING FOR HEAD 

 NO OUTPUT CONTROL FOR STRESS PERIOD    2   TIME STEP 3518
 
 SOLVING FOR HEAD 

 NO OUTPUT CONTROL FOR STRESS PERIOD    2   TIME STEP 3519
 
 SOLVING FOR HEAD 

 NO OUTPUT CONTROL FOR STRESS PERIOD    2   TIME STEP 3520
 
 SOLVING FOR HEAD 

 NO OUTPUT CONTROL FOR STRESS PERIOD    2   TIME STEP 3521
 
 SOLVING FOR HEAD 

 NO OUTPUT CONTROL FOR STRESS PERIOD    2   TIME STEP 3522
 
 SOLVING FOR HEAD 

 NO OUTPUT CONTROL FOR STRESS PERIOD    2   TIME STEP 3523
 
 SOLVING FOR HEAD 

 NO OUTPUT CONTROL FOR STRESS PERIOD    2   TIME STEP 3524
 
 SOLVING FOR HEAD 

 NO OUTPUT CONTROL FOR STRESS PERIOD    2   TIME STEP 3525
 
 SOLVING FOR HEAD 

 NO OUTPUT CONTROL FOR STRESS PERIOD    2   TIME STEP 3526
 
 SOLVING FOR HEAD 

 NO OUTPUT CONTROL FOR STRESS PERIOD    2   TIME STEP 3527
 
 SOLVING FOR HEAD 

 NO OUTPUT CONTROL FOR STRESS PERIOD    2   TIME STEP 3528
 
 SOLVING FOR HEAD 

 NO OUTPUT CONTROL FOR STRESS PERIOD    2   TIME STEP 3529
 
 SOLVING FOR HEAD 

 NO OUTPUT CONTROL FOR STRESS PERIOD    2   TIME STEP 3530
 
 SOLVING FOR HEAD 

 NO OUTPUT CONTROL FOR STRESS PERIOD    2   TIME STEP 3531
 
 SOLVING FOR HEAD 

 NO OUTPUT CONTROL FOR STRESS PERIOD    2   TIME STEP 3532
 
 SOLVING FOR HEAD 

 NO OUTPUT CONTROL FOR STRESS PERIOD    2   TIME STEP 3533
 
 SOLVING FOR HEAD 

 NO OUTPUT CONTROL FOR STRESS PERIOD    2   TIME STEP 3534
 
 SOLVING FOR HEAD 

 NO OUTPUT CONTROL FOR STRESS PERIOD    2   TIME STEP 3535
 
 SOLVING FOR HEAD 

 NO OUTPUT CONTROL FOR STRESS PERIOD    2   TIME STEP 3536
 
 SOLVING FOR HEAD 

 NO OUTPUT CONTROL FOR STRESS PERIOD    2   TIME STEP 3537
 
 SOLVING FOR HEAD 

 NO OUTPUT CONTROL FOR STRESS PERIOD    2   TIME STEP 3538
 
 SOLVING FOR HEAD 

 NO OUTPUT CONTROL FOR STRESS PERIOD    2   TIME STEP 3539
 
 SOLVING FOR HEAD 

 NO OUTPUT CONTROL FOR STRESS PERIOD    2   TIME STEP 3540
 
 SOLVING FOR HEAD 

 NO OUTPUT CONTROL FOR STRESS PERIOD    2   TIME STEP 3541
 
 SOLVING FOR HEAD 

 NO OUTPUT CONTROL FOR STRESS PERIOD    2   TIME STEP 3542
 
 SOLVING FOR HEAD 

 NO OUTPUT CONTROL FOR STRESS PERIOD    2   TIME STEP 3543
 
 SOLVING FOR HEAD 

 NO OUTPUT CONTROL FOR STRESS PERIOD    2   TIME STEP 3544
 
 SOLVING FOR HEAD 

 NO OUTPUT CONTROL FOR STRESS PERIOD    2   TIME STEP 3545
 
 SOLVING FOR HEAD 

 NO OUTPUT CONTROL FOR STRESS PERIOD    2   TIME STEP 3546
 
 SOLVING FOR HEAD 

 NO OUTPUT CONTROL FOR STRESS PERIOD    2   TIME STEP 3547
 
 SOLVING FOR HEAD 

 NO OUTPUT CONTROL FOR STRESS PERIOD    2   TIME STEP 3548
 
 SOLVING FOR HEAD 

 NO OUTPUT CONTROL FOR STRESS PERIOD    2   TIME STEP 3549
 
 SOLVING FOR HEAD 

 NO OUTPUT CONTROL FOR STRESS PERIOD    2   TIME STEP 3550
 
 SOLVING FOR HEAD 

 NO OUTPUT CONTROL FOR STRESS PERIOD    2   TIME STEP 3551
 
 SOLVING FOR HEAD 

 NO OUTPUT CONTROL FOR STRESS PERIOD    2   TIME STEP 3552
 
 SOLVING FOR HEAD 

 NO OUTPUT CONTROL FOR STRESS PERIOD    2   TIME STEP 3553
 
 SOLVING FOR HEAD 

 NO OUTPUT CONTROL FOR STRESS PERIOD    2   TIME STEP 3554
 
 SOLVING FOR HEAD 

 NO OUTPUT CONTROL FOR STRESS PERIOD    2   TIME STEP 3555
 
 SOLVING FOR HEAD 

 NO OUTPUT CONTROL FOR STRESS PERIOD    2   TIME STEP 3556
 
 SOLVING FOR HEAD 

 NO OUTPUT CONTROL FOR STRESS PERIOD    2   TIME STEP 3557
 
 SOLVING FOR HEAD 

 NO OUTPUT CONTROL FOR STRESS PERIOD    2   TIME STEP 3558
 
 SOLVING FOR HEAD 

 NO OUTPUT CONTROL FOR STRESS PERIOD    2   TIME STEP 3559
 
 SOLVING FOR HEAD 

 NO OUTPUT CONTROL FOR STRESS PERIOD    2   TIME STEP 3560
 
 SOLVING FOR HEAD 

 NO OUTPUT CONTROL FOR STRESS PERIOD    2   TIME STEP 3561
 
 SOLVING FOR HEAD 

 NO OUTPUT CONTROL FOR STRESS PERIOD    2   TIME STEP 3562
 
 SOLVING FOR HEAD 

 NO OUTPUT CONTROL FOR STRESS PERIOD    2   TIME STEP 3563
 
 SOLVING FOR HEAD 

 NO OUTPUT CONTROL FOR STRESS PERIOD    2   TIME STEP 3564
 
 SOLVING FOR HEAD 

 NO OUTPUT CONTROL FOR STRESS PERIOD    2   TIME STEP 3565
 
 SOLVING FOR HEAD 

 NO OUTPUT CONTROL FOR STRESS PERIOD    2   TIME STEP 3566
 
 SOLVING FOR HEAD 

 NO OUTPUT CONTROL FOR STRESS PERIOD    2   TIME STEP 3567
 
 SOLVING FOR HEAD 

 NO OUTPUT CONTROL FOR STRESS PERIOD    2   TIME STEP 3568
 
 SOLVING FOR HEAD 

 NO OUTPUT CONTROL FOR STRESS PERIOD    2   TIME STEP 3569
 
 SOLVING FOR HEAD 

 NO OUTPUT CONTROL FOR STRESS PERIOD    2   TIME STEP 3570
 
 SOLVING FOR HEAD 

 NO OUTPUT CONTROL FOR STRESS PERIOD    2   TIME STEP 3571
 
 SOLVING FOR HEAD 

 NO OUTPUT CONTROL FOR STRESS PERIOD    2   TIME STEP 3572
 
 SOLVING FOR HEAD 

 NO OUTPUT CONTROL FOR STRESS PERIOD    2   TIME STEP 3573
 
 SOLVING FOR HEAD 

 NO OUTPUT CONTROL FOR STRESS PERIOD    2   TIME STEP 3574
 
 SOLVING FOR HEAD 

 NO OUTPUT CONTROL FOR STRESS PERIOD    2   TIME STEP 3575
 
 SOLVING FOR HEAD 

 NO OUTPUT CONTROL FOR STRESS PERIOD    2   TIME STEP 3576
 
 SOLVING FOR HEAD 

 NO OUTPUT CONTROL FOR STRESS PERIOD    2   TIME STEP 3577
 
 SOLVING FOR HEAD 

 NO OUTPUT CONTROL FOR STRESS PERIOD    2   TIME STEP 3578
 
 SOLVING FOR HEAD 

 NO OUTPUT CONTROL FOR STRESS PERIOD    2   TIME STEP 3579
 
 SOLVING FOR HEAD 

 NO OUTPUT CONTROL FOR STRESS PERIOD    2   TIME STEP 3580
 
 SOLVING FOR HEAD 

 NO OUTPUT CONTROL FOR STRESS PERIOD    2   TIME STEP 3581
 
 SOLVING FOR HEAD 

 NO OUTPUT CONTROL FOR STRESS PERIOD    2   TIME STEP 3582
 
 SOLVING FOR HEAD 

 NO OUTPUT CONTROL FOR STRESS PERIOD    2   TIME STEP 3583
 
 SOLVING FOR HEAD 

 NO OUTPUT CONTROL FOR STRESS PERIOD    2   TIME STEP 3584
 
 SOLVING FOR HEAD 

 NO OUTPUT CONTROL FOR STRESS PERIOD    2   TIME STEP 3585
 
 SOLVING FOR HEAD 

 NO OUTPUT CONTROL FOR STRESS PERIOD    2   TIME STEP 3586
 
 SOLVING FOR HEAD 

 NO OUTPUT CONTROL FOR STRESS PERIOD    2   TIME STEP 3587
 
 SOLVING FOR HEAD 

 NO OUTPUT CONTROL FOR STRESS PERIOD    2   TIME STEP 3588
 
 SOLVING FOR HEAD 

 NO OUTPUT CONTROL FOR STRESS PERIOD    2   TIME STEP 3589
 
 SOLVING FOR HEAD 

 NO OUTPUT CONTROL FOR STRESS PERIOD    2   TIME STEP 3590
 
 SOLVING FOR HEAD 

 NO OUTPUT CONTROL FOR STRESS PERIOD    2   TIME STEP 3591
 
 SOLVING FOR HEAD 

 NO OUTPUT CONTROL FOR STRESS PERIOD    2   TIME STEP 3592
 
 SOLVING FOR HEAD 

 NO OUTPUT CONTROL FOR STRESS PERIOD    2   TIME STEP 3593
 
 SOLVING FOR HEAD 

 NO OUTPUT CONTROL FOR STRESS PERIOD    2   TIME STEP 3594
 
 SOLVING FOR HEAD 

 NO OUTPUT CONTROL FOR STRESS PERIOD    2   TIME STEP 3595
 
 SOLVING FOR HEAD 

 NO OUTPUT CONTROL FOR STRESS PERIOD    2   TIME STEP 3596
 
 SOLVING FOR HEAD 

 NO OUTPUT CONTROL FOR STRESS PERIOD    2   TIME STEP 3597
 
 SOLVING FOR HEAD 

 NO OUTPUT CONTROL FOR STRESS PERIOD    2   TIME STEP 3598
 
 SOLVING FOR HEAD 

 NO OUTPUT CONTROL FOR STRESS PERIOD    2   TIME STEP 3599
 
 SOLVING FOR HEAD 

 NO OUTPUT CONTROL FOR STRESS PERIOD    2   TIME STEP 3600
 
 SOLVING FOR HEAD 

 NO OUTPUT CONTROL FOR STRESS PERIOD    2   TIME STEP 3601
 
 SOLVING FOR HEAD 

 NO OUTPUT CONTROL FOR STRESS PERIOD    2   TIME STEP 3602
 
 SOLVING FOR HEAD 

 NO OUTPUT CONTROL FOR STRESS PERIOD    2   TIME STEP 3603
 
 SOLVING FOR HEAD 

 NO OUTPUT CONTROL FOR STRESS PERIOD    2   TIME STEP 3604
 
 SOLVING FOR HEAD 

 NO OUTPUT CONTROL FOR STRESS PERIOD    2   TIME STEP 3605
 
 SOLVING FOR HEAD 

 NO OUTPUT CONTROL FOR STRESS PERIOD    2   TIME STEP 3606
 
 SOLVING FOR HEAD 

 NO OUTPUT CONTROL FOR STRESS PERIOD    2   TIME STEP 3607
 
 SOLVING FOR HEAD 

 NO OUTPUT CONTROL FOR STRESS PERIOD    2   TIME STEP 3608
 
 SOLVING FOR HEAD 

 NO OUTPUT CONTROL FOR STRESS PERIOD    2   TIME STEP 3609
 
 SOLVING FOR HEAD 

 NO OUTPUT CONTROL FOR STRESS PERIOD    2   TIME STEP 3610
 
 SOLVING FOR HEAD 

 NO OUTPUT CONTROL FOR STRESS PERIOD    2   TIME STEP 3611
 
 SOLVING FOR HEAD 

 NO OUTPUT CONTROL FOR STRESS PERIOD    2   TIME STEP 3612
 
 SOLVING FOR HEAD 

 NO OUTPUT CONTROL FOR STRESS PERIOD    2   TIME STEP 3613
 
 SOLVING FOR HEAD 

 NO OUTPUT CONTROL FOR STRESS PERIOD    2   TIME STEP 3614
 
 SOLVING FOR HEAD 

 NO OUTPUT CONTROL FOR STRESS PERIOD    2   TIME STEP 3615
 
 SOLVING FOR HEAD 

 NO OUTPUT CONTROL FOR STRESS PERIOD    2   TIME STEP 3616
 
 SOLVING FOR HEAD 

 NO OUTPUT CONTROL FOR STRESS PERIOD    2   TIME STEP 3617
 
 SOLVING FOR HEAD 

 NO OUTPUT CONTROL FOR STRESS PERIOD    2   TIME STEP 3618
 
 SOLVING FOR HEAD 

 NO OUTPUT CONTROL FOR STRESS PERIOD    2   TIME STEP 3619
 
 SOLVING FOR HEAD 

 NO OUTPUT CONTROL FOR STRESS PERIOD    2   TIME STEP 3620
 
 SOLVING FOR HEAD 

 NO OUTPUT CONTROL FOR STRESS PERIOD    2   TIME STEP 3621
 
 SOLVING FOR HEAD 

 NO OUTPUT CONTROL FOR STRESS PERIOD    2   TIME STEP 3622
 
 SOLVING FOR HEAD 

 NO OUTPUT CONTROL FOR STRESS PERIOD    2   TIME STEP 3623
 
 SOLVING FOR HEAD 

 NO OUTPUT CONTROL FOR STRESS PERIOD    2   TIME STEP 3624
 
 SOLVING FOR HEAD 

 NO OUTPUT CONTROL FOR STRESS PERIOD    2   TIME STEP 3625
 
 SOLVING FOR HEAD 

 NO OUTPUT CONTROL FOR STRESS PERIOD    2   TIME STEP 3626
 
 SOLVING FOR HEAD 

 NO OUTPUT CONTROL FOR STRESS PERIOD    2   TIME STEP 3627
 
 SOLVING FOR HEAD 

 NO OUTPUT CONTROL FOR STRESS PERIOD    2   TIME STEP 3628
 
 SOLVING FOR HEAD 

 NO OUTPUT CONTROL FOR STRESS PERIOD    2   TIME STEP 3629
 
 SOLVING FOR HEAD 

 NO OUTPUT CONTROL FOR STRESS PERIOD    2   TIME STEP 3630
 
 SOLVING FOR HEAD 

 NO OUTPUT CONTROL FOR STRESS PERIOD    2   TIME STEP 3631
 
 SOLVING FOR HEAD 

 NO OUTPUT CONTROL FOR STRESS PERIOD    2   TIME STEP 3632
 
 SOLVING FOR HEAD 

 NO OUTPUT CONTROL FOR STRESS PERIOD    2   TIME STEP 3633
 
 SOLVING FOR HEAD 

 NO OUTPUT CONTROL FOR STRESS PERIOD    2   TIME STEP 3634
 
 SOLVING FOR HEAD 

 NO OUTPUT CONTROL FOR STRESS PERIOD    2   TIME STEP 3635
 
 SOLVING FOR HEAD 

 NO OUTPUT CONTROL FOR STRESS PERIOD    2   TIME STEP 3636
 
 SOLVING FOR HEAD 

 NO OUTPUT CONTROL FOR STRESS PERIOD    2   TIME STEP 3637
 
 SOLVING FOR HEAD 

 NO OUTPUT CONTROL FOR STRESS PERIOD    2   TIME STEP 3638
 
 SOLVING FOR HEAD 

 NO OUTPUT CONTROL FOR STRESS PERIOD    2   TIME STEP 3639
 
 SOLVING FOR HEAD 

 NO OUTPUT CONTROL FOR STRESS PERIOD    2   TIME STEP 3640
 
 SOLVING FOR HEAD 

 NO OUTPUT CONTROL FOR STRESS PERIOD    2   TIME STEP 3641
 
 SOLVING FOR HEAD 

 NO OUTPUT CONTROL FOR STRESS PERIOD    2   TIME STEP 3642
 
 SOLVING FOR HEAD 

 NO OUTPUT CONTROL FOR STRESS PERIOD    2   TIME STEP 3643
 
 SOLVING FOR HEAD 

 NO OUTPUT CONTROL FOR STRESS PERIOD    2   TIME STEP 3644
 
 SOLVING FOR HEAD 

 NO OUTPUT CONTROL FOR STRESS PERIOD    2   TIME STEP 3645
 
 SOLVING FOR HEAD 

 NO OUTPUT CONTROL FOR STRESS PERIOD    2   TIME STEP 3646
 
 SOLVING FOR HEAD 

 NO OUTPUT CONTROL FOR STRESS PERIOD    2   TIME STEP 3647
 
 SOLVING FOR HEAD 

 NO OUTPUT CONTROL FOR STRESS PERIOD    2   TIME STEP 3648
 
 SOLVING FOR HEAD 

 NO OUTPUT CONTROL FOR STRESS PERIOD    2   TIME STEP 3649
 
 SOLVING FOR HEAD 

 NO OUTPUT CONTROL FOR STRESS PERIOD    2   TIME STEP 3650
 
 SOLVING FOR HEAD 

 NO OUTPUT CONTROL FOR STRESS PERIOD    2   TIME STEP 3651
 
 SOLVING FOR HEAD 

 OUTPUT CONTROL FOR STRESS PERIOD    2   TIME STEP 3652
    PRINT BUDGET



 STREAM LISTING     PERIOD      2   STEP     3652

 LAYER ROW COL. STREAM  RCH.   FLOW INTO    STREAM     FLOW OUT OF   OVRLND.    DIRECT     STREAM      STREAM      STREAM     STREAM  STREAMBED   FLOW TO   CHNG. UNSAT. 
                SEG.NO.  NO.   STRM. RCH.    LOSS       STRM. RCH.   RUNOFF     PRECIP       ET         HEAD        DEPTH      WIDTH  CONDCTNC.   WAT. TAB.

   1   39   15     1     1    0.0000E+00 -3.7950E+03   3.7950E+03  0.000E+00  0.000E+00  0.000E+00  2.35652E+03  1.963E-02  3.000E+00  1.530E+03  0.000E+00  0.000E+00
   1   39   16     1     2    3.7950E+03  3.5470E+02   3.4403E+03  0.000E+00  0.000E+00  0.000E+00  2.35253E+03  2.548E-02  3.000E+00  6.750E+02  0.000E+00  0.000E+00
   1   39   17     1     3    3.4403E+03 -4.2866E+02   3.8689E+03  0.000E+00  0.000E+00  0.000E+00  2.34552E+03  2.372E-02  3.000E+00  9.000E+02  0.000E+00  0.000E+00
   1   38   17     1     4    3.8689E+03 -6.6331E+02   4.5322E+03  0.000E+00  0.000E+00  0.000E+00  2.34253E+03  2.597E-02  3.000E+00  4.500E+02  0.000E+00  0.000E+00
   1   38   18     1     5    4.5322E+03 -7.1783E+02   5.2501E+03  0.000E+00  0.000E+00  0.000E+00  2.33653E+03  3.083E-02  3.000E+00  1.530E+03  0.000E+00  0.000E+00
   1   38   19     1     6    5.2501E+03  3.5847E+02   4.8916E+03  0.000E+00  0.000E+00  0.000E+00  2.33253E+03  3.106E-02  3.000E+00  6.750E+02  0.000E+00  0.000E+00
   1   38   20     1     7    4.8916E+03 -1.9833E+03   6.8749E+03  0.000E+00  0.000E+00  0.000E+00  2.32453E+03  3.090E-02  3.000E+00  1.350E+03  0.000E+00  0.000E+00
   1   38   21     1     8    6.8749E+03 -1.9766E+03   8.8515E+03  0.000E+00  0.000E+00  0.000E+00  2.31654E+03  3.584E-02  3.000E+00  1.350E+03  0.000E+00  0.000E+00
   1   38   22     1     9    8.8515E+03 -2.2385E+03   1.1090E+04  0.000E+00  0.000E+00  0.000E+00  2.30654E+03  3.694E-02  3.000E+00  1.530E+03  0.000E+00  0.000E+00
   1   38   23     1    10    1.1090E+04 -8.3478E+03   1.9438E+04  0.000E+00  0.000E+00  0.000E+00  2.28854E+03  4.389E-02  3.000E+00  1.530E+03  0.000E+00  0.000E+00
   1   37   24     1    11    1.9438E+04 -6.9008E+02   2.0128E+04  0.000E+00  0.000E+00  0.000E+00  2.26855E+03  4.897E-02  3.000E+00  1.530E+03  0.000E+00  0.000E+00
   1   37   25     1    12    2.0128E+04 -6.9600E+03   2.7088E+04  0.000E+00  0.000E+00  0.000E+00  2.24756E+03  5.554E-02  3.000E+00  1.080E+03  0.000E+00  0.000E+00
   1   36   25     1    13    2.7088E+04 -3.3470E+03   3.0435E+04  0.000E+00  0.000E+00  0.000E+00  2.24056E+03  6.226E-02  3.000E+00  4.500E+02  0.000E+00  0.000E+00
   1   36   26     1    14    3.0435E+04 -5.8665E+03   3.6301E+04  0.000E+00  0.000E+00  0.000E+00  2.22657E+03  6.806E-02  3.000E+00  1.080E+03  0.000E+00  0.000E+00
   1   35   26     1    15    3.6301E+04 -1.9885E+03   3.8290E+04  0.000E+00  0.000E+00  0.000E+00  2.21958E+03  8.101E-02  3.000E+00  4.500E+02  0.000E+00  0.000E+00
   1   35   27     1    16    3.8290E+04 -5.6409E+02   3.8854E+04  0.000E+00  0.000E+00  0.000E+00  2.21058E+03  8.215E-02  3.000E+00  1.350E+03  0.000E+00  0.000E+00
   1   36   28     1    17    3.8854E+04 -6.3485E+02   3.9489E+04  0.000E+00  0.000E+00  0.000E+00  2.19658E+03  8.506E-02  3.000E+00  1.530E+03  0.000E+00  0.000E+00
   1   36   29     1    18    3.9489E+04 -5.5753E+02   4.0046E+04  0.000E+00  0.000E+00  0.000E+00  2.18459E+03  8.702E-02  3.000E+00  1.350E+03  0.000E+00  0.000E+00
   1   36   30     1    19    4.0046E+04 -5.5513E+02   4.0602E+04  0.000E+00  0.000E+00  0.000E+00  2.17259E+03  8.879E-02  3.000E+00  1.350E+03  0.000E+00  0.000E+00
   1   36   31     1    20    4.0602E+04  4.4862E+02   4.0153E+04  0.000E+00  0.000E+00  0.000E+00  2.16159E+03  8.643E-02  3.000E+00  7.650E+02  0.000E+00  0.000E+00
   1   36   32     1    21    4.0153E+04 -1.8817E+02   4.0341E+04  0.000E+00  0.000E+00  0.000E+00  2.15058E+03  8.185E-02  3.000E+00  4.500E+02  0.000E+00  0.000E+00
   1   35   32     1    22    4.0341E+04 -4.7657E+03   4.5107E+04  0.000E+00  0.000E+00  0.000E+00  2.14259E+03  8.735E-02  3.000E+00  1.080E+03  0.000E+00  0.000E+00
   1   35   33     1    23    4.5107E+04 -1.8514E+02   4.5292E+04  0.000E+00  0.000E+00  0.000E+00  2.13559E+03  8.859E-02  3.000E+00  4.500E+02  0.000E+00  0.000E+00
   1   34   33     1    24    4.5292E+04 -3.6799E+03   4.8972E+04  0.000E+00  0.000E+00  0.000E+00  2.12659E+03  9.265E-02  3.000E+00  1.080E+03  0.000E+00  0.000E+00
   1   34   34     1    25    4.8972E+04 -1.7903E+02   4.9151E+04  0.000E+00  0.000E+00  0.000E+00  2.12060E+03  1.022E-01  3.000E+00  4.500E+02  0.000E+00  0.000E+00
   1   33   34     1    26    4.9151E+04 -3.5823E+02   4.9509E+04  0.000E+00  0.000E+00  0.000E+00  2.11560E+03  1.020E-01  3.000E+00  9.000E+02  0.000E+00  0.000E+00
   1   33   35     1    27    4.9509E+04 -4.2759E+02   4.9937E+04  0.000E+00  0.000E+00  0.000E+00  2.10760E+03  1.041E-01  3.000E+00  1.080E+03  0.000E+00  0.000E+00
   1   32   35     1    28    4.9937E+04 -6.2895E+02   5.0566E+04  0.000E+00  0.000E+00  0.000E+00  2.10260E+03  1.023E-01  3.000E+00  4.500E+02  0.000E+00  0.000E+00
   1   32   36     1    29    5.0566E+04 -5.9793E+02   5.1164E+04  0.000E+00  0.000E+00  0.000E+00  2.09361E+03  1.092E-01  3.000E+00  1.530E+03  0.000E+00  0.000E+00
   1   32   37     1    30    5.1164E+04 -5.1242E+02   5.1676E+04  0.000E+00  0.000E+00  0.000E+00  2.08662E+03  1.204E-01  3.000E+00  1.350E+03  0.000E+00  0.000E+00
   1   53   37     2     1    0.0000E+00 -6.6531E+02   6.6531E+02  0.000E+00  0.000E+00  0.000E+00  2.14751E+03  7.175E-03  3.000E+00  1.350E+03  0.000E+00  0.000E+00
   1   52   37     2     2    6.6531E+02  2.7507E+02   3.9024E+02  0.000E+00  0.000E+00  0.000E+00  2.14451E+03  9.389E-03  3.000E+00  5.400E+02  0.000E+00  0.000E+00
   1   52   38     2     3    3.9024E+02 -6.7054E+02   1.0608E+03  0.000E+00  0.000E+00  0.000E+00  2.14251E+03  9.908E-03  3.000E+00  4.500E+02  0.000E+00  0.000E+00
   1   51   38     2     4    1.0608E+03 -7.4063E+02   1.8014E+03  0.000E+00  0.000E+00  0.000E+00  2.13752E+03  1.593E-02  3.000E+00  1.530E+03  0.000E+00  0.000E+00
   1   50   38     2     5    1.8014E+03 -4.2833E+02   2.2297E+03  0.000E+00  0.000E+00  0.000E+00  2.13552E+03  2.408E-02  3.000E+00  9.000E+02  0.000E+00  0.000E+00
   1   50   39     2     6    2.2297E+03 -2.1381E+02   2.4436E+03  0.000E+00  0.000E+00  0.000E+00  2.13452E+03  2.486E-02  3.000E+00  4.500E+02  0.000E+00  0.000E+00
   1   49   39     2     7    2.4436E+03  3.5350E+02   2.0901E+03  0.000E+00  0.000E+00  0.000E+00  2.13252E+03  2.370E-02  3.000E+00  6.750E+02  0.000E+00  0.000E+00
   1   48   39     2     8    2.0901E+03  3.9942E+02   1.6906E+03  0.000E+00  0.000E+00  0.000E+00  2.12952E+03  2.212E-02  3.000E+00  7.650E+02  0.000E+00  0.000E+00
   1   47   39     2     9    1.6906E+03  2.3434E+02   1.4563E+03  0.000E+00  0.000E+00  0.000E+00  2.12752E+03  2.075E-02  3.000E+00  4.500E+02  0.000E+00  0.000E+00
   1   47   40     2    10    1.4563E+03 -6.6547E+02   2.1218E+03  0.000E+00  0.000E+00  0.000E+00  2.12652E+03  2.118E-02  3.000E+00  4.500E+02  0.000E+00  0.000E+00
   1   46   40     2    11    2.1218E+03 -6.4184E+02   2.7636E+03  0.000E+00  0.000E+00  0.000E+00  2.12452E+03  2.456E-02  3.000E+00  1.350E+03  0.000E+00  0.000E+00
   1   45   40     2    12    2.7636E+03 -6.6279E+02   3.4264E+03  0.000E+00  0.000E+00  0.000E+00  2.12253E+03  2.713E-02  3.000E+00  4.500E+02  0.000E+00  0.000E+00
   1   45   39     2    13    3.4264E+03 -1.3196E+03   4.7460E+03  0.000E+00  0.000E+00  0.000E+00  2.12053E+03  3.375E-02  3.000E+00  9.000E+02  0.000E+00  0.000E+00
   1   44   39     2    14    4.7460E+03  4.0863E+02   4.3374E+03  0.000E+00  0.000E+00  0.000E+00  2.11853E+03  3.415E-02  3.000E+00  7.650E+02  0.000E+00  0.000E+00
   1   43   38     2    15    4.3374E+03  4.0511E+02   3.9323E+03  0.000E+00  0.000E+00  0.000E+00  2.11353E+03  2.956E-02  3.000E+00  7.650E+02  0.000E+00  0.000E+00
   1   42   38     2    16    3.9323E+03 -6.3343E+02   4.5657E+03  0.000E+00  0.000E+00  0.000E+00  2.10853E+03  3.079E-02  3.000E+00  1.350E+03  0.000E+00  0.000E+00
   1   41   38     2    17    4.5657E+03 -7.0973E+02   5.2755E+03  0.000E+00  0.000E+00  0.000E+00  2.10454E+03  3.612E-02  3.000E+00  1.530E+03  0.000E+00  0.000E+00
   1   40   38     2    18    5.2755E+03 -2.1038E+02   5.4858E+03  0.000E+00  0.000E+00  0.000E+00  2.10253E+03  3.249E-02  3.000E+00  4.500E+02  0.000E+00  0.000E+00
   1   40   39     2    19    5.4858E+03 -4.9131E+03   1.0399E+04  0.000E+00  0.000E+00  0.000E+00  2.09754E+03  4.104E-02  3.000E+00  9.000E+02  0.000E+00  0.000E+00
   1   39   39     2    20    1.0399E+04  4.2181E+02   9.9771E+03  0.000E+00  0.000E+00  0.000E+00  2.09455E+03  5.139E-02  3.000E+00  7.650E+02  0.000E+00  0.000E+00
   1   38   39     2    21    9.9771E+03 -2.2204E+03   1.2197E+04  0.000E+00  0.000E+00  0.000E+00  2.08855E+03  4.879E-02  3.000E+00  1.530E+03  0.000E+00  0.000E+00
   1   37   40     2    22    1.2197E+04 -6.8723E+02   1.2885E+04  0.000E+00  0.000E+00  0.000E+00  2.08055E+03  5.083E-02  3.000E+00  1.530E+03  0.000E+00  0.000E+00
   1   36   40     2    23    1.2885E+04 -2.1981E+03   1.5083E+04  0.000E+00  0.000E+00  0.000E+00  2.07456E+03  5.763E-02  3.000E+00  9.000E+02  0.000E+00  0.000E+00
   1   36   41     2    24    1.5083E+04 -6.4460E+02   1.5727E+04  0.000E+00  0.000E+00  0.000E+00  2.07257E+03  6.756E-02  3.000E+00  4.500E+02  0.000E+00  0.000E+00
   1   35   41     2    25    1.5727E+04 -6.5263E+02   1.6380E+04  0.000E+00  0.000E+00  0.000E+00  2.06957E+03  7.344E-02  3.000E+00  1.530E+03  0.000E+00  0.000E+00
   1   34   41     2    26    1.6380E+04  3.8512E+02   1.5995E+04  0.000E+00  0.000E+00  0.000E+00  2.06657E+03  7.055E-02  3.000E+00  6.750E+02  0.000E+00  0.000E+00
   1   33   41     2    27    1.5995E+04  3.8292E+02   1.5612E+04  0.000E+00  0.000E+00  0.000E+00  2.06157E+03  6.729E-02  3.000E+00  6.750E+02  0.000E+00  0.000E+00
   1   32   41     2    28    1.5612E+04 -6.6509E+02   1.6277E+04  0.000E+00  0.000E+00  0.000E+00  2.05757E+03  6.530E-02  3.000E+00  1.530E+03  0.000E+00  0.000E+00
   1   31   42     2    29    1.6277E+04 -7.4660E+02   1.7024E+04  0.000E+00  0.000E+00  0.000E+00  2.04956E+03  6.339E-02  3.000E+00  1.710E+03  0.000E+00  0.000E+00
   1   31   33     3     1    0.0000E+00 -3.3536E+03   3.3536E+03  0.000E+00  0.000E+00  0.000E+00  2.11652E+03  1.585E-02  3.000E+00  1.350E+03  0.000E+00  0.000E+00
   1   31   34     3     2    3.3536E+03  3.5182E+02   3.0018E+03  0.000E+00  0.000E+00  0.000E+00  2.11052E+03  2.121E-02  3.000E+00  6.750E+02  0.000E+00  0.000E+00
   1   31   35     3     3    3.0018E+03 -7.3139E+02   3.7332E+03  0.000E+00  0.000E+00  0.000E+00  2.09952E+03  2.196E-02  3.000E+00  1.530E+03  0.000E+00  0.000E+00
   1   31   36     3     4    3.7332E+03 -2.2499E+03   5.9831E+03  0.000E+00  0.000E+00  0.000E+00  2.09253E+03  2.948E-02  3.000E+00  1.530E+03  0.000E+00  0.000E+00
   1   31   37     3     5    5.9831E+03 -6.2888E+02   6.6120E+03  0.000E+00  0.000E+00  0.000E+00  2.08553E+03  3.416E-02  3.000E+00  1.350E+03  0.000E+00  0.000E+00
   1   48   48     4     1    0.0000E+00 -2.0028E+03   2.0028E+03  0.000E+00  0.000E+00  0.000E+00  2.11352E+03  1.647E-02  3.000E+00  1.350E+03  0.000E+00  0.000E+00
   1   47   48     4     2    2.0028E+03 -7.2743E+02   2.7302E+03  0.000E+00  0.000E+00  0.000E+00  2.11152E+03  2.455E-02  3.000E+00  1.530E+03  0.000E+00  0.000E+00
   1   46   48     4     3    2.7302E+03 -6.6347E+02   3.3937E+03  0.000E+00  0.000E+00  0.000E+00  2.10953E+03  2.563E-02  3.000E+00  4.500E+02  0.000E+00  0.000E+00
   1   46   47     4     4    3.3937E+03 -1.3200E+03   4.7137E+03  0.000E+00  0.000E+00  0.000E+00  2.10753E+03  3.328E-02  3.000E+00  9.000E+02  0.000E+00  0.000E+00
   1   45   47     4     5    4.7137E+03  3.6247E+02   4.3512E+03  0.000E+00  0.000E+00  0.000E+00  2.10554E+03  3.699E-02  3.000E+00  6.750E+02  0.000E+00  0.000E+00
   1   44   47     4     6    4.3512E+03  4.0651E+02   3.9447E+03  0.000E+00  0.000E+00  0.000E+00  2.10253E+03  3.139E-02  3.000E+00  7.650E+02  0.000E+00  0.000E+00
   1   43   47     4     7    3.9447E+03 -1.9855E+03   5.9302E+03  0.000E+00  0.000E+00  0.000E+00  2.09753E+03  2.928E-02  3.000E+00  1.350E+03  0.000E+00  0.000E+00
   1   42   47     4     8    5.9302E+03 -3.3285E+03   9.2587E+03  0.000E+00  0.000E+00  0.000E+00  2.08853E+03  3.447E-02  3.000E+00  1.350E+03  0.000E+00  0.000E+00
   1   41   47     4     9    9.2587E+03 -1.3123E+03   1.0571E+04  0.000E+00  0.000E+00  0.000E+00  2.08054E+03  4.185E-02  3.000E+00  9.000E+02  0.000E+00  0.000E+00
   1   41   48     4    10    1.0571E+04 -1.1050E+03   1.1676E+04  0.000E+00  0.000E+00  0.000E+00  2.07754E+03  4.441E-02  3.000E+00  4.500E+02  0.000E+00  0.000E+00
   1   40   48     4    11    1.1676E+04 -6.1064E+02   1.2287E+04  0.000E+00  0.000E+00  0.000E+00  2.07055E+03  4.768E-02  3.000E+00  1.350E+03  0.000E+00  0.000E+00
   1   39   48     4    12    1.2287E+04 -4.6515E+03   1.6938E+04  0.000E+00  0.000E+00  0.000E+00  2.06455E+03  5.447E-02  3.000E+00  1.350E+03  0.000E+00  0.000E+00
   1   38   47     4    13    1.6938E+04  3.7594E+02   1.6562E+04  0.000E+00  0.000E+00  0.000E+00  2.05556E+03  5.695E-02  3.000E+00  6.750E+02  0.000E+00  0.000E+00
   1   37   47     4    14    1.6562E+04 -5.9967E+02   1.7162E+04  0.000E+00  0.000E+00  0.000E+00  2.04756E+03  5.580E-02  3.000E+00  1.350E+03  0.000E+00  0.000E+00
   1   36   48     4    15    1.7162E+04 -6.7525E+02   1.7837E+04  0.000E+00  0.000E+00  0.000E+00  2.03656E+03  5.866E-02  3.000E+00  1.530E+03  0.000E+00  0.000E+00
   1   35   48     4    16    1.7837E+04 -1.9708E+02   1.8034E+04  0.000E+00  0.000E+00  0.000E+00  2.03256E+03  6.205E-02  3.000E+00  4.500E+02  0.000E+00  0.000E+00
   1   35   49     4    17    1.8034E+04 -3.9690E+02   1.8431E+04  0.000E+00  0.000E+00  0.000E+00  2.02756E+03  5.900E-02  3.000E+00  9.000E+02  0.000E+00  0.000E+00
   1   34   49     4    18    1.8431E+04 -1.5491E+03   1.9980E+04  0.000E+00  0.000E+00  0.000E+00  2.02157E+03  6.564E-02  3.000E+00  1.080E+03  0.000E+00  0.000E+00
   1   34   50     4    19    1.9980E+04 -6.4158E+02   2.0622E+04  0.000E+00  0.000E+00  0.000E+00  2.01857E+03  7.427E-02  3.000E+00  4.500E+02  0.000E+00  0.000E+00
   1   33   50     4    20    2.0622E+04  4.9148E+02   2.0130E+04  0.000E+00  0.000E+00  0.000E+00  2.01457E+03  7.483E-02  3.000E+00  8.550E+02  0.000E+00  0.000E+00
   1   55   72     5     1    0.0000E+00 -3.3507E+03   3.3507E+03  0.000E+00  0.000E+00  0.000E+00  2.00152E+03  1.797E-02  3.000E+00  1.350E+03  0.000E+00  0.000E+00
   1   54   72     5     2    3.3507E+03 -6.3763E+02   3.9884E+03  0.000E+00  0.000E+00  0.000E+00  1.99753E+03  2.768E-02  3.000E+00  1.350E+03  0.000E+00  0.000E+00
   1   53   72     5     3    3.9884E+03  3.5442E+02   3.6340E+03  0.000E+00  0.000E+00  0.000E+00  1.99253E+03  2.507E-02  3.000E+00  6.750E+02  0.000E+00  0.000E+00
   1   52   72     5     4    3.6340E+03 -7.2569E+02   4.3596E+03  0.000E+00  0.000E+00  0.000E+00  1.98353E+03  2.569E-02  3.000E+00  1.530E+03  0.000E+00  0.000E+00
   1   51   72     5     5    4.3596E+03  4.0279E+02   3.9569E+03  0.000E+00  0.000E+00  0.000E+00  1.97753E+03  2.652E-02  3.000E+00  7.650E+02  0.000E+00  0.000E+00
   1   50   73     5     6    3.9569E+03 -7.2349E+02   4.6803E+03  0.000E+00  0.000E+00  0.000E+00  1.96853E+03  2.713E-02  3.000E+00  1.530E+03  0.000E+00  0.000E+00
   1   49   73     5     7    4.6803E+03 -7.1889E+02   5.3992E+03  0.000E+00  0.000E+00  0.000E+00  1.96253E+03  3.014E-02  3.000E+00  1.530E+03  0.000E+00  0.000E+00
   1   48   73     5     8    5.3992E+03 -2.1076E+02   5.6100E+03  0.000E+00  0.000E+00  0.000E+00  1.95653E+03  3.164E-02  3.000E+00  4.500E+02  0.000E+00  0.000E+00
   1   48   74     5     9    5.6100E+03 -2.2154E+03   7.8254E+03  0.000E+00  0.000E+00  0.000E+00  1.95454E+03  3.845E-02  3.000E+00  9.000E+02  0.000E+00  0.000E+00
   1   47   74     5    10    7.8254E+03 -7.0017E+02   8.5255E+03  0.000E+00  0.000E+00  0.000E+00  1.94954E+03  4.238E-02  3.000E+00  1.530E+03  0.000E+00  0.000E+00
   1   46   75     5    11    8.5255E+03  4.1752E+02   8.1080E+03  0.000E+00  0.000E+00  0.000E+00  1.94355E+03  4.578E-02  3.000E+00  7.650E+02  0.000E+00  0.000E+00
   1   45   75     5    12    8.1080E+03  1.2294E+02   7.9851E+03  0.000E+00  0.000E+00  0.000E+00  1.94155E+03  4.639E-02  3.000E+00  2.250E+02  0.000E+00  0.000E+00
   1   45   76     5    13    7.9851E+03  2.9371E+02   7.6914E+03  0.000E+00  0.000E+00  0.000E+00  1.93854E+03  4.391E-02  3.000E+00  5.400E+02  0.000E+00  0.000E+00
   1   44   76     5    14    7.6914E+03  1.2291E+02   7.5685E+03  0.000E+00  0.000E+00  0.000E+00  1.93655E+03  4.626E-02  3.000E+00  2.250E+02  0.000E+00  0.000E+00
   1   45   62     6     1    0.0000E+00 -2.0069E+03   2.0069E+03  0.000E+00  0.000E+00  0.000E+00  2.00451E+03  1.340E-02  3.000E+00  1.350E+03  0.000E+00  0.000E+00
   1   44   62     6     2    2.0069E+03 -7.3348E+02   2.7404E+03  0.000E+00  0.000E+00  0.000E+00  1.99952E+03  2.060E-02  3.000E+00  1.530E+03  0.000E+00  0.000E+00
   1   43   62     6     3    2.7404E+03  1.1696E+02   2.6234E+03  0.000E+00  0.000E+00  0.000E+00  1.99552E+03  1.984E-02  3.000E+00  2.250E+02  0.000E+00  0.000E+00
   1   43   63     6     4    2.6234E+03 -1.3290E+03   3.9524E+03  0.000E+00  0.000E+00  0.000E+00  1.99152E+03  2.333E-02  3.000E+00  9.000E+02  0.000E+00  0.000E+00
   1   42   63     6     5    3.9524E+03 -7.2245E+02   4.6749E+03  0.000E+00  0.000E+00  0.000E+00  1.98553E+03  2.781E-02  3.000E+00  1.530E+03  0.000E+00  0.000E+00
   1   41   63     6     6    4.6749E+03  3.5675E+02   4.3181E+03  0.000E+00  0.000E+00  0.000E+00  1.97953E+03  2.851E-02  3.000E+00  6.750E+02  0.000E+00  0.000E+00
   1   40   63     6     7    4.3181E+03 -7.2033E+02   5.0385E+03  0.000E+00  0.000E+00  0.000E+00  1.97353E+03  2.920E-02  3.000E+00  1.530E+03  0.000E+00  0.000E+00
   1   24   55     7     1    0.0000E+00 -2.2373E+03   2.2373E+03  0.000E+00  0.000E+00  0.000E+00  2.03351E+03  1.410E-02  3.000E+00  9.000E+02  0.000E+00  0.000E+00
   1   25   55     7     2    2.2373E+03  1.1649E+02   2.1208E+03  0.000E+00  0.000E+00  0.000E+00  2.03152E+03  1.772E-02  3.000E+00  2.250E+02  0.000E+00  0.000E+00
   1   25   56     7     3    2.1208E+03 -1.3310E+03   3.4518E+03  0.000E+00  0.000E+00  0.000E+00  2.02652E+03  2.112E-02  3.000E+00  9.000E+02  0.000E+00  0.000E+00
   1   26   56     7     4    3.4518E+03 -7.2193E+02   4.1737E+03  0.000E+00  0.000E+00  0.000E+00  2.02253E+03  2.815E-02  3.000E+00  1.530E+03  0.000E+00  0.000E+00
   1   27   56     7     5    4.1737E+03 -6.3379E+02   4.8075E+03  0.000E+00  0.000E+00  0.000E+00  2.01753E+03  3.053E-02  3.000E+00  1.350E+03  0.000E+00  0.000E+00
   1   28   57     7     6    4.8075E+03 -6.3088E+02   5.4384E+03  0.000E+00  0.000E+00  0.000E+00  2.01253E+03  3.268E-02  3.000E+00  1.350E+03  0.000E+00  0.000E+00
   1   29   57     7     7    5.4384E+03 -6.2770E+02   6.0661E+03  0.000E+00  0.000E+00  0.000E+00  2.00754E+03  3.504E-02  3.000E+00  1.350E+03  0.000E+00  0.000E+00
   1   30   57     7     8    6.0661E+03 -6.2294E+02   6.6890E+03  0.000E+00  0.000E+00  0.000E+00  2.00254E+03  3.856E-02  3.000E+00  1.350E+03  0.000E+00  0.000E+00
   1   31   57     7     9    6.6890E+03 -6.1928E+02   7.3083E+03  0.000E+00  0.000E+00  0.000E+00  1.99854E+03  4.128E-02  3.000E+00  1.350E+03  0.000E+00  0.000E+00
   1   32   57     7    10    7.3083E+03 -6.9352E+02   8.0018E+03  0.000E+00  0.000E+00  0.000E+00  1.99355E+03  4.672E-02  3.000E+00  1.530E+03  0.000E+00  0.000E+00
   1   33   57     7    11    8.0018E+03  3.0018E+02   7.7017E+03  0.000E+00  0.000E+00  0.000E+00  1.99156E+03  5.589E-02  3.000E+00  5.400E+02  0.000E+00  0.000E+00
   1   33   58     7    12    7.7017E+03 -2.0529E+02   7.9070E+03  0.000E+00  0.000E+00  0.000E+00  1.99054E+03  4.379E-02  3.000E+00  4.500E+02  0.000E+00  0.000E+00
   1   34   58     7    13    7.9070E+03 -4.9408E+02   8.4010E+03  0.000E+00  0.000E+00  0.000E+00  1.98654E+03  4.252E-02  3.000E+00  1.080E+03  0.000E+00  0.000E+00
   1   34   59     7    14    8.4010E+03 -6.5308E+02   9.0541E+03  0.000E+00  0.000E+00  0.000E+00  1.98455E+03  4.870E-02  3.000E+00  4.500E+02  0.000E+00  0.000E+00
   1   35   59     7    15    9.0541E+03  4.2006E+02   8.6341E+03  0.000E+00  0.000E+00  0.000E+00  1.98155E+03  4.909E-02  3.000E+00  7.650E+02  0.000E+00  0.000E+00
   1   36   59     7    16    8.6341E+03  3.6930E+02   8.2648E+03  0.000E+00  0.000E+00  0.000E+00  1.97755E+03  4.712E-02  3.000E+00  6.750E+02  0.000E+00  0.000E+00
   1   37   60     7    17    8.2648E+03 -2.4807E+03   1.0745E+04  0.000E+00  0.000E+00  0.000E+00  1.97255E+03  4.929E-02  3.000E+00  1.710E+03  0.000E+00  0.000E+00
   1   23   71     8     1    0.0000E+00  0.0000E+00   0.0000E+00  0.000E+00  0.000E+00  0.000E+00  2.05250E+03  0.000E+00  3.000E+00  6.750E+02  0.000E+00  0.000E+00
   1   24   71     8     2    0.0000E+00 -7.5254E+02   7.5254E+02  0.000E+00  0.000E+00  0.000E+00  2.04851E+03  8.146E-03  3.000E+00  1.530E+03  0.000E+00  0.000E+00
   1   25   71     8     3    7.5254E+02  3.4619E+02   4.0635E+02  0.000E+00  0.000E+00  0.000E+00  2.04651E+03  1.287E-02  3.000E+00  6.750E+02  0.000E+00  0.000E+00
   1   26   71     8     4    4.0635E+02 -7.3799E+02   1.1443E+03  0.000E+00  0.000E+00  0.000E+00  2.04552E+03  1.765E-02  3.000E+00  1.530E+03  0.000E+00  0.000E+00
   1   27   72     8     5    1.1443E+03 -7.2689E+02   1.8712E+03  0.000E+00  0.000E+00  0.000E+00  2.04452E+03  2.491E-02  3.000E+00  1.530E+03  0.000E+00  0.000E+00
   1   27   73     8     6    1.8712E+03 -2.0096E+03   3.8808E+03  0.000E+00  0.000E+00  0.000E+00  2.04353E+03  3.432E-02  3.000E+00  4.500E+02  0.000E+00  0.000E+00
   1   28   73     8     7    3.8808E+03 -2.2169E+03   6.0977E+03  0.000E+00  0.000E+00  0.000E+00  2.04255E+03  5.106E-02  3.000E+00  1.530E+03  0.000E+00  0.000E+00
   1   29   73     8     8    6.0977E+03 -3.2829E+03   9.3806E+03  0.000E+00  0.000E+00  0.000E+00  2.04157E+03  6.821E-02  3.000E+00  1.350E+03  0.000E+00  0.000E+00
   1   30   73     8     9    9.3806E+03 -1.9360E+03   1.1317E+04  0.000E+00  0.000E+00  0.000E+00  2.04057E+03  6.596E-02  3.000E+00  1.350E+03  0.000E+00  0.000E+00
   1   31   73     8    10    1.1317E+04 -5.9749E+02   1.1914E+04  0.000E+00  0.000E+00  0.000E+00  2.03756E+03  5.742E-02  3.000E+00  1.350E+03  0.000E+00  0.000E+00
   1   32   73     8    11    1.1914E+04 -1.9483E+03   1.3862E+04  0.000E+00  0.000E+00  0.000E+00  2.03256E+03  5.685E-02  3.000E+00  1.350E+03  0.000E+00  0.000E+00
   1   33   73     8    12    1.3862E+04 -3.2910E+03   1.7153E+04  0.000E+00  0.000E+00  0.000E+00  2.02756E+03  6.222E-02  3.000E+00  1.350E+03  0.000E+00  0.000E+00
   1   34   73     8    13    1.7153E+04 -1.1000E+03   1.8253E+04  0.000E+00  0.000E+00  0.000E+00  2.02356E+03  5.557E-02  3.000E+00  4.500E+02  0.000E+00  0.000E+00
   1   34   74     8    14    1.8253E+04 -2.1951E+03   2.0448E+04  0.000E+00  0.000E+00  0.000E+00  2.01556E+03  6.096E-02  3.000E+00  9.000E+02  0.000E+00  0.000E+00
   1   35   74     8    15    2.0448E+04  3.8519E+02   2.0063E+04  0.000E+00  0.000E+00  0.000E+00  2.01157E+03  7.066E-02  3.000E+00  6.750E+02  0.000E+00  0.000E+00
   1   36   74     8    16    2.0063E+04 -1.0952E+03   2.1158E+04  0.000E+00  0.000E+00  0.000E+00  2.00657E+03  6.625E-02  3.000E+00  4.500E+02  0.000E+00  0.000E+00
   1   36   73     8    17    2.1158E+04 -3.9931E+03   2.5152E+04  0.000E+00  0.000E+00  0.000E+00  2.00256E+03  6.320E-02  3.000E+00  9.000E+02  0.000E+00  0.000E+00
   1   37   73     8    18    2.5152E+04 -6.7788E+03   3.1930E+04  0.000E+00  0.000E+00  0.000E+00  1.99057E+03  6.943E-02  3.000E+00  1.530E+03  0.000E+00  0.000E+00
   1   38   72     8    19    3.1930E+04  3.9019E+02   3.1540E+04  0.000E+00  0.000E+00  0.000E+00  1.97758E+03  7.806E-02  3.000E+00  6.750E+02  0.000E+00  0.000E+00
   1   39   72     8    20    3.1540E+04  3.9246E+02   3.1148E+04  0.000E+00  0.000E+00  0.000E+00  1.96858E+03  8.142E-02  3.000E+00  6.750E+02  0.000E+00  0.000E+00
   1   40   72     8    21    3.1148E+04 -5.5857E+02   3.1706E+04  0.000E+00  0.000E+00  0.000E+00  1.95959E+03  8.624E-02  3.000E+00  1.350E+03  0.000E+00  0.000E+00
   1   41   72     8    22    3.1706E+04  3.9499E+02   3.1311E+04  0.000E+00  0.000E+00  0.000E+00  1.95359E+03  8.516E-02  3.000E+00  6.750E+02  0.000E+00  0.000E+00
   1   42   72     8    23    3.1311E+04 -1.8832E+02   3.1500E+04  0.000E+00  0.000E+00  0.000E+00  1.94658E+03  8.152E-02  3.000E+00  4.500E+02  0.000E+00  0.000E+00
   1   42   73     8    24    3.1500E+04  1.3319E+02   3.1366E+04  0.000E+00  0.000E+00  0.000E+00  1.94459E+03  9.197E-02  3.000E+00  2.250E+02  0.000E+00  0.000E+00
   1   31   38     9     1    5.8288E+04 -1.8334E+03   6.0121E+04  0.000E+00  0.000E+00  0.000E+00  2.07764E+03  1.419E-01  3.000E+00  1.350E+03  0.000E+00  0.000E+00
   1   31   39     9     2    6.0121E+04 -5.0275E+02   6.0624E+04  0.000E+00  0.000E+00  0.000E+00  2.07263E+03  1.276E-01  3.000E+00  1.350E+03  0.000E+00  0.000E+00
   1   31   40     9     3    6.0624E+04 -5.1129E+02   6.1135E+04  0.000E+00  0.000E+00  0.000E+00  2.06262E+03  1.213E-01  3.000E+00  1.350E+03  0.000E+00  0.000E+00
   1   31   41     9     4    6.1135E+04 -4.9636E+02   6.1632E+04  0.000E+00  0.000E+00  0.000E+00  2.05463E+03  1.323E-01  3.000E+00  1.350E+03  0.000E+00  0.000E+00
   1   31   42     9     5    6.1632E+04 -3.7205E+02   6.2004E+04  0.000E+00  0.000E+00  0.000E+00  2.04966E+03  1.555E-01  3.000E+00  1.080E+03  0.000E+00  0.000E+00
   1   30   42     9     6    6.2004E+04 -1.4849E+03   6.3489E+04  0.000E+00  0.000E+00  0.000E+00  2.04870E+03  2.001E-01  3.000E+00  4.500E+02  0.000E+00  0.000E+00
   1   30   43    10     1    8.0512E+04 -1.7892E+03   8.2302E+04  0.000E+00  0.000E+00  0.000E+00  2.04267E+03  1.747E-01  3.000E+00  1.350E+03  0.000E+00  0.000E+00
   1   30   44    10     2    8.2302E+04 -1.1796E+03   8.3481E+04  0.000E+00  0.000E+00  0.000E+00  2.03869E+03  1.893E-01  3.000E+00  9.000E+02  0.000E+00  0.000E+00
   1   29   44    10     3    8.3481E+04 -1.0365E+03   8.4518E+04  0.000E+00  0.000E+00  0.000E+00  2.03770E+03  1.966E-01  3.000E+00  4.500E+02  0.000E+00  0.000E+00
   1   29   45    10     4    8.4518E+04 -4.2463E+02   8.4942E+04  0.000E+00  0.000E+00  0.000E+00  2.03469E+03  1.855E-01  3.000E+00  1.350E+03  0.000E+00  0.000E+00
   1   29   46    10     5    8.4942E+04  4.6267E+02   8.4480E+04  0.000E+00  0.000E+00  0.000E+00  2.03069E+03  1.854E-01  3.000E+00  6.750E+02  0.000E+00  0.000E+00
   1   29   47    10     6    8.4480E+04  1.5179E+02   8.4328E+04  0.000E+00  0.000E+00  0.000E+00  2.02767E+03  1.746E-01  3.000E+00  2.250E+02  0.000E+00  0.000E+00
   1   30   47    10     7    8.4328E+04 -2.7514E+02   8.4603E+04  0.000E+00  0.000E+00  0.000E+00  2.02469E+03  1.943E-01  3.000E+00  9.000E+02  0.000E+00  0.000E+00
   1   30   48    10     8    8.4603E+04  5.4127E+02   8.4062E+04  0.000E+00  0.000E+00  0.000E+00  2.02271E+03  2.075E-01  3.000E+00  7.650E+02  0.000E+00  0.000E+00
   1   31   49    10     9    8.4062E+04  5.8705E+02   8.3475E+04  0.000E+00  0.000E+00  0.000E+00  2.01869E+03  1.866E-01  3.000E+00  8.550E+02  0.000E+00  0.000E+00
   1   32   50    10    10    8.3475E+04 -5.5122E+02   8.4026E+04  0.000E+00  0.000E+00  0.000E+00  2.01268E+03  1.776E-01  3.000E+00  1.710E+03  0.000E+00  0.000E+00
   1   32   51    11     1    1.0416E+05 -3.0793E+03   1.0724E+05  0.000E+00  0.000E+00  0.000E+00  2.00772E+03  2.190E-01  3.000E+00  1.350E+03  0.000E+00  0.000E+00
   1   33   52    11     2    1.0724E+05 -4.4183E+02   1.0768E+05  0.000E+00  0.000E+00  0.000E+00  2.00371E+03  2.112E-01  3.000E+00  1.530E+03  0.000E+00  0.000E+00
   1   33   53    11     3    1.0768E+05 -2.3962E+03   1.1007E+05  0.000E+00  0.000E+00  0.000E+00  1.99968E+03  1.751E-01  3.000E+00  4.500E+02  0.000E+00  0.000E+00
   1   34   53    11     4    1.1007E+05 -1.4231E+03   1.1150E+05  0.000E+00  0.000E+00  0.000E+00  1.99268E+03  1.824E-01  3.000E+00  1.080E+03  0.000E+00  0.000E+00
   1   34   54    11     5    1.1150E+05 -1.1362E+03   1.1263E+05  0.000E+00  0.000E+00  0.000E+00  1.98974E+03  2.376E-01  3.000E+00  9.000E+02  0.000E+00  0.000E+00
   1   35   54    11     6    1.1263E+05 -5.5791E+02   1.1319E+05  0.000E+00  0.000E+00  0.000E+00  1.98876E+03  2.602E-01  3.000E+00  4.500E+02  0.000E+00  0.000E+00
   1   35   55    11     7    1.1319E+05  5.7534E+02   1.1262E+05  0.000E+00  0.000E+00  0.000E+00  1.98675E+03  2.521E-01  3.000E+00  7.650E+02  0.000E+00  0.000E+00
   1   35   56    11     8    1.1262E+05 -3.9037E+02   1.1301E+05  0.000E+00  0.000E+00  0.000E+00  1.98374E+03  2.449E-01  3.000E+00  1.530E+03  0.000E+00  0.000E+00
   1   36   57    11     9    1.1301E+05 -3.9336E+02   1.1340E+05  0.000E+00  0.000E+00  0.000E+00  1.97977E+03  2.700E-01  3.000E+00  1.710E+03  0.000E+00  0.000E+00
   1   36   58    11    10    1.1340E+05 -2.7012E+02   1.1367E+05  0.000E+00  0.000E+00  0.000E+00  1.97880E+03  2.999E-01  3.000E+00  1.350E+03  0.000E+00  0.000E+00
   1   36   59    11    11    1.1367E+05 -2.0926E+02   1.1388E+05  0.000E+00  0.000E+00  0.000E+00  1.97677E+03  2.675E-01  3.000E+00  9.000E+02  0.000E+00  0.000E+00
   1   37   59    11    12    1.1388E+05  1.7592E+02   1.1370E+05  0.000E+00  0.000E+00  0.000E+00  1.97578E+03  2.819E-01  3.000E+00  2.250E+02  0.000E+00  0.000E+00
   1   37   60    11    13    1.1370E+05  4.3811E+02   1.1326E+05  0.000E+00  0.000E+00  0.000E+00  1.97481E+03  3.113E-01  3.000E+00  5.400E+02  0.000E+00  0.000E+00
   1   38   60    11    14    1.1326E+05 -6.6948E+01   1.1333E+05  0.000E+00  0.000E+00  0.000E+00  1.97385E+03  3.512E-01  3.000E+00  4.500E+02  0.000E+00  0.000E+00
   1   38   61    12     1    1.2408E+05 -1.9724E+02   1.2427E+05  0.000E+00  0.000E+00  0.000E+00  1.97187E+03  3.711E-01  3.000E+00  1.530E+03  0.000E+00  0.000E+00
   1   38   62    12     2    1.2427E+05 -2.2691E+02   1.2450E+05  0.000E+00  0.000E+00  0.000E+00  1.97085E+03  3.517E-01  3.000E+00  1.530E+03  0.000E+00  0.000E+00
   1   38   63    12     3    1.2450E+05 -8.4758E+01   1.2459E+05  0.000E+00  0.000E+00  0.000E+00  1.96981E+03  3.116E-01  3.000E+00  4.500E+02  0.000E+00  0.000E+00
   1   39   63    12     4    1.2459E+05 -1.0852E+03   1.2567E+05  0.000E+00  0.000E+00  0.000E+00  1.96879E+03  2.943E-01  3.000E+00  9.000E+02  0.000E+00  0.000E+00
   1   39   64    13     1    1.3071E+05 -3.1212E+02   1.3102E+05  0.000E+00  0.000E+00  0.000E+00  1.96783E+03  3.266E-01  3.000E+00  1.800E+03  0.000E+00  0.000E+00
   1   39   65    13     2    1.3102E+05 -1.0648E+03   1.3209E+05  0.000E+00  0.000E+00  0.000E+00  1.96682E+03  3.169E-01  3.000E+00  9.000E+02  0.000E+00  0.000E+00
   1   40   65    13     3    1.3209E+05 -2.3008E+03   1.3439E+05  0.000E+00  0.000E+00  0.000E+00  1.96589E+03  3.871E-01  3.000E+00  4.500E+02  0.000E+00  0.000E+00
   1   40   66    13     4    1.3439E+05 -1.8926E+02   1.3458E+05  0.000E+00  0.000E+00  0.000E+00  1.96486E+03  3.598E-01  3.000E+00  1.350E+03  0.000E+00  0.000E+00
   1   40   67    13     5    1.3458E+05  5.4475E+02   1.3403E+05  0.000E+00  0.000E+00  0.000E+00  1.96281E+03  3.070E-01  3.000E+00  6.750E+02  0.000E+00  0.000E+00
   1   40   68    13     6    1.3403E+05 -2.2749E+02   1.3426E+05  0.000E+00  0.000E+00  0.000E+00  1.96083E+03  3.315E-01  3.000E+00  1.350E+03  0.000E+00  0.000E+00
   1   41   69    13     7    1.3426E+05  5.4736E+02   1.3371E+05  0.000E+00  0.000E+00  0.000E+00  1.95981E+03  3.109E-01  3.000E+00  6.750E+02  0.000E+00  0.000E+00
   1   41   70    13     8    1.3371E+05 -4.2633E+02   1.3414E+05  0.000E+00  0.000E+00  0.000E+00  1.95675E+03  2.507E-01  3.000E+00  1.710E+03  0.000E+00  0.000E+00
   1   42   71    13     9    1.3414E+05 -3.8339E+02   1.3452E+05  0.000E+00  0.000E+00  0.000E+00  1.95075E+03  2.494E-01  3.000E+00  1.530E+03  0.000E+00  0.000E+00
   1   42   72    13    10    1.3452E+05  5.1337E+02   1.3401E+05  0.000E+00  0.000E+00  0.000E+00  1.94776E+03  2.606E-01  3.000E+00  6.750E+02  0.000E+00  0.000E+00
   1   42   73    13    11    1.3401E+05  1.6641E+02   1.3384E+05  0.000E+00  0.000E+00  0.000E+00  1.94474E+03  2.396E-01  3.000E+00  2.250E+02  0.000E+00  0.000E+00
   1   42   73    14     1    1.6521E+05 -8.6452E+01   1.6529E+05  0.000E+00  0.000E+00  0.000E+00  1.94381E+03  3.079E-01  3.000E+00  4.500E+02  0.000E+00  0.000E+00
   1   43   73    14     2    1.6529E+05 -5.1616E+02   1.6581E+05  0.000E+00  0.000E+00  0.000E+00  1.94285E+03  3.530E-01  3.000E+00  4.500E+02  0.000E+00  0.000E+00
   1   43   74    14     3    1.6581E+05  6.5644E+02   1.6515E+05  0.000E+00  0.000E+00  0.000E+00  1.94186E+03  3.581E-01  3.000E+00  7.650E+02  0.000E+00  0.000E+00
   1   43   75    14     4    1.6515E+05 -1.4515E+02   1.6530E+05  0.000E+00  0.000E+00  0.000E+00  1.93984E+03  3.387E-01  3.000E+00  9.000E+02  0.000E+00  0.000E+00
   1   44   75    14     5    1.6530E+05 -8.0930E+01   1.6538E+05  0.000E+00  0.000E+00  0.000E+00  1.93882E+03  3.202E-01  3.000E+00  4.500E+02  0.000E+00  0.000E+00
   1   44   76    14     6    1.6538E+05  5.7887E+02   1.6480E+05  0.000E+00  0.000E+00  0.000E+00  1.93686E+03  3.576E-01  3.000E+00  6.750E+02  0.000E+00  0.000E+00
   1   44   77    15     1    1.7237E+05  6.3353E+02   1.7174E+05  0.000E+00  0.000E+00  0.000E+00  1.93594E+03  4.386E-01  3.000E+00  6.750E+02  0.000E+00  0.000E+00
   1   44   78    15     2    1.7174E+05  5.7126E+02   1.7117E+05  0.000E+00  0.000E+00  0.000E+00  1.93485E+03  3.463E-01  3.000E+00  6.750E+02  0.000E+00  0.000E+00
   1   44   79    15     3    1.7117E+05 -1.6691E+02   1.7133E+05  0.000E+00  0.000E+00  0.000E+00  1.93181E+03  3.145E-01  3.000E+00  9.000E+02  0.000E+00  0.000E+00
   1   45   79    15     4    1.7133E+05 -5.1496E+02   1.7185E+05  0.000E+00  0.000E+00  0.000E+00  1.93086E+03  3.556E-01  3.000E+00  4.500E+02  0.000E+00  0.000E+00



1
  VOLUMETRIC BUDGET FOR UNSATURATED ZONE BENEATH STREAMS AT END OF TIME STEP  3652 STRESS PERIOD   2
  ------------------------------------------------------------------------------------------------

    CUMULATIVE VOLUMES             L**3    RATES FOR THIS TIME STEP         L**3/T
    ------------------                     ------------------------


          STREAM LOSS =            0.0000            STREAM LOSS =            0.0000
    CHANGE IN STORAGE =            0.0000      CHANGE IN STORAGE =            0.0000
       RECHARGE TO GW =            0.0000         RECHARGE TO GW =            0.0000

             TOTAL IN =            0.0000               TOTAL IN =            0.0000

            TOTAL OUT =            0.0000              TOTAL OUT =            0.0000

             IN - OUT =            0.0000               IN - OUT =            0.0000

  PERCENT DISCREPANCY =            0.00      PERCENT DISCREPANCY =             0.00





UNSATURATED ZONE PACKAGE VOLUMETRIC BUDGET FOR  TIME STEP  3652 STRESS PERIOD    2
  ------------------------------------------------------------------------------



     CUMULATIVE VOLUMES      L**3       RATES FOR THIS TIME STEP      L**3/T
     ------------------                 ------------------------

           IN:                                      IN:
           ---                                      ---
        INFILTRATION =    50662798.7377          INFILTRATION =       13868.8198

          OUT:                                     OUT:
          ----                                     ----
              UZF ET =       0.0000E+00                UZF ET =       0.0000E+00
        UZF RECHARGE =    50662798.7377          UZF RECHARGE =       13868.8198

            IN - OUT =       0.0000E+00              IN - OUT =       0.0000E+00

          STORAGE:                                 STORAGE:
          --------                                 --------
      STORAGE CHANGE =       0.0000E+00        STORAGE CHANGE =       0.0000E+00

 PERCENT DISCREPANCY IS DIFFERENCE BETWEEN IN-OUT MINUS CHANGE IN STORAGE
 DIVIDED BY THE AVERAGE OF IN AND OUT TIMES 100

 PERCENT DISCREPANCY =           0.00     PERCENT DISCREPANCY =           0.00






1
  VOLUMETRIC BUDGET FOR ENTIRE MODEL AT END OF TIME STEP 3652, STRESS PERIOD   2
  ------------------------------------------------------------------------------

     CUMULATIVE VOLUMES      L**3       RATES FOR THIS TIME STEP      L**3/T
     ------------------                 ------------------------

           IN:                                      IN:
           ---                                      ---
             STORAGE =           0.0000               STORAGE =           0.0000
       CONSTANT HEAD =           0.0000         CONSTANT HEAD =           0.0000
               WELLS =      278648.0000                 WELLS =          76.0000
      STREAM LEAKAGE =    69392784.0000        STREAM LEAKAGE =       18996.3223
        UZF RECHARGE =    50663448.0000          UZF RECHARGE =       13869.0908
               GW ET =           0.0000                 GW ET =           0.0000
     SURFACE LEAKAGE =           0.0000       SURFACE LEAKAGE =           0.0000

            TOTAL IN =   120334880.0000              TOTAL IN =       32941.4141

          OUT:                                     OUT:
          ----                                     ----
             STORAGE =           0.0000               STORAGE =           0.0000
       CONSTANT HEAD =     3663041.7500         CONSTANT HEAD =        1002.7369
               WELLS =           0.0000                 WELLS =           0.0000
      STREAM LEAKAGE =   697144000.0000        STREAM LEAKAGE =      190843.3438
        UZF RECHARGE =           0.0000          UZF RECHARGE =           0.0000
               GW ET =           0.0000                 GW ET =           0.0000
     SURFACE LEAKAGE =           0.0000       SURFACE LEAKAGE =           0.0000

           TOTAL OUT =   700807040.0000             TOTAL OUT =      191846.0781

            IN - OUT =  -580472192.0000              IN - OUT =     -158904.6562

 PERCENT DISCREPANCY =        -141.38     PERCENT DISCREPANCY =        -141.38






         TIME SUMMARY AT END OF TIME STEP 3652 IN STRESS PERIOD    2
                    SECONDS     MINUTES      HOURS       DAYS        YEARS
                    -----------------------------------------------------------
   TIME STEP LENGTH  86400.      1440.0      24.000      1.0000     2.73785E-03
 STRESS PERIOD TIME 3.15533E+08 5.25888E+06  87648.      3652.0      9.9986    
         TOTAL TIME 3.15619E+08 5.26032E+06  87672.      3653.0      10.001    
1
 
 SOLVING FOR HEAD 

 NO OUTPUT CONTROL FOR STRESS PERIOD    2   TIME STEP 3653
 
 SOLVING FOR HEAD 

 NO OUTPUT CONTROL FOR STRESS PERIOD    2   TIME STEP 3654
 
 SOLVING FOR HEAD 

 NO OUTPUT CONTROL FOR STRESS PERIOD    2   TIME STEP 3655
 
 SOLVING FOR HEAD 

 NO OUTPUT CONTROL FOR STRESS PERIOD    2   TIME STEP 3656
 
 SOLVING FOR HEAD 

 NO OUTPUT CONTROL FOR STRESS PERIOD    2   TIME STEP 3657
 
 SOLVING FOR HEAD 

 NO OUTPUT CONTROL FOR STRESS PERIOD    2   TIME STEP 3658
 
 SOLVING FOR HEAD 

 NO OUTPUT CONTROL FOR STRESS PERIOD    2   TIME STEP 3659
 
 SOLVING FOR HEAD 

 NO OUTPUT CONTROL FOR STRESS PERIOD    2   TIME STEP 3660
 
 SOLVING FOR HEAD 

 NO OUTPUT CONTROL FOR STRESS PERIOD    2   TIME STEP 3661
 
 SOLVING FOR HEAD 

 NO OUTPUT CONTROL FOR STRESS PERIOD    2   TIME STEP 3662
 
 SOLVING FOR HEAD 

 NO OUTPUT CONTROL FOR STRESS PERIOD    2   TIME STEP 3663
 
 SOLVING FOR HEAD 

 NO OUTPUT CONTROL FOR STRESS PERIOD    2   TIME STEP 3664
 
 SOLVING FOR HEAD 

 NO OUTPUT CONTROL FOR STRESS PERIOD    2   TIME STEP 3665
 
 SOLVING FOR HEAD 

 NO OUTPUT CONTROL FOR STRESS PERIOD    2   TIME STEP 3666
 
 SOLVING FOR HEAD 

 NO OUTPUT CONTROL FOR STRESS PERIOD    2   TIME STEP 3667
 
 SOLVING FOR HEAD 

 NO OUTPUT CONTROL FOR STRESS PERIOD    2   TIME STEP 3668
 
 SOLVING FOR HEAD 

 NO OUTPUT CONTROL FOR STRESS PERIOD    2   TIME STEP 3669
 
 SOLVING FOR HEAD 

 NO OUTPUT CONTROL FOR STRESS PERIOD    2   TIME STEP 3670
 
 SOLVING FOR HEAD 

 NO OUTPUT CONTROL FOR STRESS PERIOD    2   TIME STEP 3671
 
 SOLVING FOR HEAD 

 NO OUTPUT CONTROL FOR STRESS PERIOD    2   TIME STEP 3672
 
 SOLVING FOR HEAD 

 NO OUTPUT CONTROL FOR STRESS PERIOD    2   TIME STEP 3673
 
 SOLVING FOR HEAD 

 NO OUTPUT CONTROL FOR STRESS PERIOD    2   TIME STEP 3674
 
 SOLVING FOR HEAD 

 NO OUTPUT CONTROL FOR STRESS PERIOD    2   TIME STEP 3675
 
 SOLVING FOR HEAD 

 NO OUTPUT CONTROL FOR STRESS PERIOD    2   TIME STEP 3676
 
 SOLVING FOR HEAD 

 NO OUTPUT CONTROL FOR STRESS PERIOD    2   TIME STEP 3677
 
 SOLVING FOR HEAD 

 NO OUTPUT CONTROL FOR STRESS PERIOD    2   TIME STEP 3678
 
 SOLVING FOR HEAD 

 NO OUTPUT CONTROL FOR STRESS PERIOD    2   TIME STEP 3679
 
 SOLVING FOR HEAD 

 NO OUTPUT CONTROL FOR STRESS PERIOD    2   TIME STEP 3680
 
 SOLVING FOR HEAD 

 NO OUTPUT CONTROL FOR STRESS PERIOD    2   TIME STEP 3681
 
 SOLVING FOR HEAD 

 NO OUTPUT CONTROL FOR STRESS PERIOD    2   TIME STEP 3682
 
 SOLVING FOR HEAD 

 NO OUTPUT CONTROL FOR STRESS PERIOD    2   TIME STEP 3683
 
 SOLVING FOR HEAD 

 NO OUTPUT CONTROL FOR STRESS PERIOD    2   TIME STEP 3684
 
 SOLVING FOR HEAD 

 NO OUTPUT CONTROL FOR STRESS PERIOD    2   TIME STEP 3685
 
 SOLVING FOR HEAD 

 NO OUTPUT CONTROL FOR STRESS PERIOD    2   TIME STEP 3686
 
 SOLVING FOR HEAD 

 NO OUTPUT CONTROL FOR STRESS PERIOD    2   TIME STEP 3687
 
 SOLVING FOR HEAD 

 NO OUTPUT CONTROL FOR STRESS PERIOD    2   TIME STEP 3688
 
 SOLVING FOR HEAD 

 NO OUTPUT CONTROL FOR STRESS PERIOD    2   TIME STEP 3689
 
 SOLVING FOR HEAD 

 NO OUTPUT CONTROL FOR STRESS PERIOD    2   TIME STEP 3690
 
 SOLVING FOR HEAD 

 NO OUTPUT CONTROL FOR STRESS PERIOD    2   TIME STEP 3691
 
 SOLVING FOR HEAD 

 NO OUTPUT CONTROL FOR STRESS PERIOD    2   TIME STEP 3692
 
 SOLVING FOR HEAD 

 NO OUTPUT CONTROL FOR STRESS PERIOD    2   TIME STEP 3693
 
 SOLVING FOR HEAD 

 NO OUTPUT CONTROL FOR STRESS PERIOD    2   TIME STEP 3694
 
 SOLVING FOR HEAD 

 NO OUTPUT CONTROL FOR STRESS PERIOD    2   TIME STEP 3695
 
 SOLVING FOR HEAD 

 NO OUTPUT CONTROL FOR STRESS PERIOD    2   TIME STEP 3696
 
 SOLVING FOR HEAD 

 NO OUTPUT CONTROL FOR STRESS PERIOD    2   TIME STEP 3697
 
 SOLVING FOR HEAD 

 NO OUTPUT CONTROL FOR STRESS PERIOD    2   TIME STEP 3698
 
 SOLVING FOR HEAD 

 NO OUTPUT CONTROL FOR STRESS PERIOD    2   TIME STEP 3699
 
 SOLVING FOR HEAD 

 NO OUTPUT CONTROL FOR STRESS PERIOD    2   TIME STEP 3700
 
 SOLVING FOR HEAD 

 NO OUTPUT CONTROL FOR STRESS PERIOD    2   TIME STEP 3701
 
 SOLVING FOR HEAD 

 NO OUTPUT CONTROL FOR STRESS PERIOD    2   TIME STEP 3702
 
 SOLVING FOR HEAD 

 NO OUTPUT CONTROL FOR STRESS PERIOD    2   TIME STEP 3703
 
 SOLVING FOR HEAD 

 NO OUTPUT CONTROL FOR STRESS PERIOD    2   TIME STEP 3704
 
 SOLVING FOR HEAD 

 NO OUTPUT CONTROL FOR STRESS PERIOD    2   TIME STEP 3705
 
 SOLVING FOR HEAD 

 NO OUTPUT CONTROL FOR STRESS PERIOD    2   TIME STEP 3706
 
 SOLVING FOR HEAD 

 NO OUTPUT CONTROL FOR STRESS PERIOD    2   TIME STEP 3707
 
 SOLVING FOR HEAD 

 NO OUTPUT CONTROL FOR STRESS PERIOD    2   TIME STEP 3708
 
 SOLVING FOR HEAD 

 NO OUTPUT CONTROL FOR STRESS PERIOD    2   TIME STEP 3709
 
 SOLVING FOR HEAD 

 NO OUTPUT CONTROL FOR STRESS PERIOD    2   TIME STEP 3710
 
 SOLVING FOR HEAD 

 NO OUTPUT CONTROL FOR STRESS PERIOD    2   TIME STEP 3711
 
 SOLVING FOR HEAD 

 NO OUTPUT CONTROL FOR STRESS PERIOD    2   TIME STEP 3712
 
 SOLVING FOR HEAD 

 NO OUTPUT CONTROL FOR STRESS PERIOD    2   TIME STEP 3713
 
 SOLVING FOR HEAD 

 NO OUTPUT CONTROL FOR STRESS PERIOD    2   TIME STEP 3714
 
 SOLVING FOR HEAD 

 NO OUTPUT CONTROL FOR STRESS PERIOD    2   TIME STEP 3715
 
 SOLVING FOR HEAD 

 NO OUTPUT CONTROL FOR STRESS PERIOD    2   TIME STEP 3716
 
 SOLVING FOR HEAD 

 NO OUTPUT CONTROL FOR STRESS PERIOD    2   TIME STEP 3717
 
 SOLVING FOR HEAD 

 NO OUTPUT CONTROL FOR STRESS PERIOD    2   TIME STEP 3718
 
 SOLVING FOR HEAD 

 NO OUTPUT CONTROL FOR STRESS PERIOD    2   TIME STEP 3719
 
 SOLVING FOR HEAD 

 NO OUTPUT CONTROL FOR STRESS PERIOD    2   TIME STEP 3720
 
 SOLVING FOR HEAD 

 NO OUTPUT CONTROL FOR STRESS PERIOD    2   TIME STEP 3721
 
 SOLVING FOR HEAD 

 NO OUTPUT CONTROL FOR STRESS PERIOD    2   TIME STEP 3722
 
 SOLVING FOR HEAD 

 NO OUTPUT CONTROL FOR STRESS PERIOD    2   TIME STEP 3723
 
 SOLVING FOR HEAD 

 NO OUTPUT CONTROL FOR STRESS PERIOD    2   TIME STEP 3724
 
 SOLVING FOR HEAD 

 NO OUTPUT CONTROL FOR STRESS PERIOD    2   TIME STEP 3725
 
 SOLVING FOR HEAD 

 NO OUTPUT CONTROL FOR STRESS PERIOD    2   TIME STEP 3726
 
 SOLVING FOR HEAD 

 NO OUTPUT CONTROL FOR STRESS PERIOD    2   TIME STEP 3727
 
 SOLVING FOR HEAD 

 NO OUTPUT CONTROL FOR STRESS PERIOD    2   TIME STEP 3728
 
 SOLVING FOR HEAD 

 NO OUTPUT CONTROL FOR STRESS PERIOD    2   TIME STEP 3729
 
 SOLVING FOR HEAD 

 NO OUTPUT CONTROL FOR STRESS PERIOD    2   TIME STEP 3730
 
 SOLVING FOR HEAD 

 NO OUTPUT CONTROL FOR STRESS PERIOD    2   TIME STEP 3731
 
 SOLVING FOR HEAD 

 NO OUTPUT CONTROL FOR STRESS PERIOD    2   TIME STEP 3732
 
 SOLVING FOR HEAD 

 NO OUTPUT CONTROL FOR STRESS PERIOD    2   TIME STEP 3733
 
 SOLVING FOR HEAD 

 NO OUTPUT CONTROL FOR STRESS PERIOD    2   TIME STEP 3734
 
 SOLVING FOR HEAD 

 NO OUTPUT CONTROL FOR STRESS PERIOD    2   TIME STEP 3735
 
 SOLVING FOR HEAD 

 NO OUTPUT CONTROL FOR STRESS PERIOD    2   TIME STEP 3736
 
 SOLVING FOR HEAD 

 NO OUTPUT CONTROL FOR STRESS PERIOD    2   TIME STEP 3737
 
 SOLVING FOR HEAD 

 NO OUTPUT CONTROL FOR STRESS PERIOD    2   TIME STEP 3738
 
 SOLVING FOR HEAD 

 NO OUTPUT CONTROL FOR STRESS PERIOD    2   TIME STEP 3739
 
 SOLVING FOR HEAD 

 NO OUTPUT CONTROL FOR STRESS PERIOD    2   TIME STEP 3740
 
 SOLVING FOR HEAD 

 NO OUTPUT CONTROL FOR STRESS PERIOD    2   TIME STEP 3741
 
 SOLVING FOR HEAD 

 NO OUTPUT CONTROL FOR STRESS PERIOD    2   TIME STEP 3742
 
 SOLVING FOR HEAD 

 NO OUTPUT CONTROL FOR STRESS PERIOD    2   TIME STEP 3743
 
 SOLVING FOR HEAD 

 NO OUTPUT CONTROL FOR STRESS PERIOD    2   TIME STEP 3744
 
 SOLVING FOR HEAD 

 NO OUTPUT CONTROL FOR STRESS PERIOD    2   TIME STEP 3745
 
 SOLVING FOR HEAD 

 NO OUTPUT CONTROL FOR STRESS PERIOD    2   TIME STEP 3746
 
 SOLVING FOR HEAD 

 NO OUTPUT CONTROL FOR STRESS PERIOD    2   TIME STEP 3747
 
 SOLVING FOR HEAD 

 NO OUTPUT CONTROL FOR STRESS PERIOD    2   TIME STEP 3748
 
 SOLVING FOR HEAD 

 NO OUTPUT CONTROL FOR STRESS PERIOD    2   TIME STEP 3749
 
 SOLVING FOR HEAD 

 NO OUTPUT CONTROL FOR STRESS PERIOD    2   TIME STEP 3750
 
 SOLVING FOR HEAD 

 NO OUTPUT CONTROL FOR STRESS PERIOD    2   TIME STEP 3751
 
 SOLVING FOR HEAD 

 NO OUTPUT CONTROL FOR STRESS PERIOD    2   TIME STEP 3752
 
 SOLVING FOR HEAD 

 NO OUTPUT CONTROL FOR STRESS PERIOD    2   TIME STEP 3753
 
 SOLVING FOR HEAD 

 NO OUTPUT CONTROL FOR STRESS PERIOD    2   TIME STEP 3754
 
 SOLVING FOR HEAD 

 NO OUTPUT CONTROL FOR STRESS PERIOD    2   TIME STEP 3755
 
 SOLVING FOR HEAD 

 NO OUTPUT CONTROL FOR STRESS PERIOD    2   TIME STEP 3756
 
 SOLVING FOR HEAD 

 NO OUTPUT CONTROL FOR STRESS PERIOD    2   TIME STEP 3757
 
 SOLVING FOR HEAD 

 NO OUTPUT CONTROL FOR STRESS PERIOD    2   TIME STEP 3758
 
 SOLVING FOR HEAD 

 NO OUTPUT CONTROL FOR STRESS PERIOD    2   TIME STEP 3759
 
 SOLVING FOR HEAD 

 NO OUTPUT CONTROL FOR STRESS PERIOD    2   TIME STEP 3760
 
 SOLVING FOR HEAD 

 NO OUTPUT CONTROL FOR STRESS PERIOD    2   TIME STEP 3761
 
 SOLVING FOR HEAD 

 NO OUTPUT CONTROL FOR STRESS PERIOD    2   TIME STEP 3762
 
 SOLVING FOR HEAD 

 NO OUTPUT CONTROL FOR STRESS PERIOD    2   TIME STEP 3763
 
 SOLVING FOR HEAD 

 NO OUTPUT CONTROL FOR STRESS PERIOD    2   TIME STEP 3764
 
 SOLVING FOR HEAD 

 NO OUTPUT CONTROL FOR STRESS PERIOD    2   TIME STEP 3765
 
 SOLVING FOR HEAD 

 NO OUTPUT CONTROL FOR STRESS PERIOD    2   TIME STEP 3766
 
 SOLVING FOR HEAD 

 NO OUTPUT CONTROL FOR STRESS PERIOD    2   TIME STEP 3767
 
 SOLVING FOR HEAD 

 NO OUTPUT CONTROL FOR STRESS PERIOD    2   TIME STEP 3768
 
 SOLVING FOR HEAD 

 NO OUTPUT CONTROL FOR STRESS PERIOD    2   TIME STEP 3769
 
 SOLVING FOR HEAD 

 NO OUTPUT CONTROL FOR STRESS PERIOD    2   TIME STEP 3770
 
 SOLVING FOR HEAD 

 NO OUTPUT CONTROL FOR STRESS PERIOD    2   TIME STEP 3771
 
 SOLVING FOR HEAD 

 NO OUTPUT CONTROL FOR STRESS PERIOD    2   TIME STEP 3772
 
 SOLVING FOR HEAD 

 NO OUTPUT CONTROL FOR STRESS PERIOD    2   TIME STEP 3773
 
 SOLVING FOR HEAD 

 NO OUTPUT CONTROL FOR STRESS PERIOD    2   TIME STEP 3774
 
 SOLVING FOR HEAD 

 NO OUTPUT CONTROL FOR STRESS PERIOD    2   TIME STEP 3775
 
 SOLVING FOR HEAD 

 NO OUTPUT CONTROL FOR STRESS PERIOD    2   TIME STEP 3776
 
 SOLVING FOR HEAD 

 NO OUTPUT CONTROL FOR STRESS PERIOD    2   TIME STEP 3777
 
 SOLVING FOR HEAD 

 NO OUTPUT CONTROL FOR STRESS PERIOD    2   TIME STEP 3778
 
 SOLVING FOR HEAD 

 NO OUTPUT CONTROL FOR STRESS PERIOD    2   TIME STEP 3779
 
 SOLVING FOR HEAD 

 NO OUTPUT CONTROL FOR STRESS PERIOD    2   TIME STEP 3780
 
 SOLVING FOR HEAD 

 NO OUTPUT CONTROL FOR STRESS PERIOD    2   TIME STEP 3781
 
 SOLVING FOR HEAD 

 NO OUTPUT CONTROL FOR STRESS PERIOD    2   TIME STEP 3782
 
 SOLVING FOR HEAD 

 NO OUTPUT CONTROL FOR STRESS PERIOD    2   TIME STEP 3783
 
 SOLVING FOR HEAD 

 NO OUTPUT CONTROL FOR STRESS PERIOD    2   TIME STEP 3784
 
 SOLVING FOR HEAD 

 NO OUTPUT CONTROL FOR STRESS PERIOD    2   TIME STEP 3785
 
 SOLVING FOR HEAD 

 NO OUTPUT CONTROL FOR STRESS PERIOD    2   TIME STEP 3786
 
 SOLVING FOR HEAD 

 NO OUTPUT CONTROL FOR STRESS PERIOD    2   TIME STEP 3787
 
 SOLVING FOR HEAD 

 NO OUTPUT CONTROL FOR STRESS PERIOD    2   TIME STEP 3788
 
 SOLVING FOR HEAD 

 NO OUTPUT CONTROL FOR STRESS PERIOD    2   TIME STEP 3789
 
 SOLVING FOR HEAD 

 NO OUTPUT CONTROL FOR STRESS PERIOD    2   TIME STEP 3790
 
 SOLVING FOR HEAD 

 NO OUTPUT CONTROL FOR STRESS PERIOD    2   TIME STEP 3791
 
 SOLVING FOR HEAD 

 NO OUTPUT CONTROL FOR STRESS PERIOD    2   TIME STEP 3792
 
 SOLVING FOR HEAD 

 NO OUTPUT CONTROL FOR STRESS PERIOD    2   TIME STEP 3793
 
 SOLVING FOR HEAD 

 NO OUTPUT CONTROL FOR STRESS PERIOD    2   TIME STEP 3794
 
 SOLVING FOR HEAD 

 NO OUTPUT CONTROL FOR STRESS PERIOD    2   TIME STEP 3795
 
 SOLVING FOR HEAD 

 NO OUTPUT CONTROL FOR STRESS PERIOD    2   TIME STEP 3796
 
 SOLVING FOR HEAD 

 NO OUTPUT CONTROL FOR STRESS PERIOD    2   TIME STEP 3797
 
 SOLVING FOR HEAD 

 NO OUTPUT CONTROL FOR STRESS PERIOD    2   TIME STEP 3798
 
 SOLVING FOR HEAD 

 NO OUTPUT CONTROL FOR STRESS PERIOD    2   TIME STEP 3799
 
 SOLVING FOR HEAD 

 NO OUTPUT CONTROL FOR STRESS PERIOD    2   TIME STEP 3800
 
 SOLVING FOR HEAD 

 NO OUTPUT CONTROL FOR STRESS PERIOD    2   TIME STEP 3801
 
 SOLVING FOR HEAD 

 NO OUTPUT CONTROL FOR STRESS PERIOD    2   TIME STEP 3802
 
 SOLVING FOR HEAD 

 NO OUTPUT CONTROL FOR STRESS PERIOD    2   TIME STEP 3803
 
 SOLVING FOR HEAD 

 NO OUTPUT CONTROL FOR STRESS PERIOD    2   TIME STEP 3804
 
 SOLVING FOR HEAD 

 NO OUTPUT CONTROL FOR STRESS PERIOD    2   TIME STEP 3805
 
 SOLVING FOR HEAD 

 NO OUTPUT CONTROL FOR STRESS PERIOD    2   TIME STEP 3806
 
 SOLVING FOR HEAD 

 NO OUTPUT CONTROL FOR STRESS PERIOD    2   TIME STEP 3807
 
 SOLVING FOR HEAD 

 NO OUTPUT CONTROL FOR STRESS PERIOD    2   TIME STEP 3808
 
 SOLVING FOR HEAD 

 NO OUTPUT CONTROL FOR STRESS PERIOD    2   TIME STEP 3809
 
 SOLVING FOR HEAD 

 NO OUTPUT CONTROL FOR STRESS PERIOD    2   TIME STEP 3810
 
 SOLVING FOR HEAD 

 NO OUTPUT CONTROL FOR STRESS PERIOD    2   TIME STEP 3811
 
 SOLVING FOR HEAD 

 NO OUTPUT CONTROL FOR STRESS PERIOD    2   TIME STEP 3812
 
 SOLVING FOR HEAD 

 NO OUTPUT CONTROL FOR STRESS PERIOD    2   TIME STEP 3813
 
 SOLVING FOR HEAD 

 NO OUTPUT CONTROL FOR STRESS PERIOD    2   TIME STEP 3814
 
 SOLVING FOR HEAD 

 NO OUTPUT CONTROL FOR STRESS PERIOD    2   TIME STEP 3815
 
 SOLVING FOR HEAD 

 NO OUTPUT CONTROL FOR STRESS PERIOD    2   TIME STEP 3816
 
 SOLVING FOR HEAD 

 NO OUTPUT CONTROL FOR STRESS PERIOD    2   TIME STEP 3817
 
 SOLVING FOR HEAD 

 NO OUTPUT CONTROL FOR STRESS PERIOD    2   TIME STEP 3818
 
 SOLVING FOR HEAD 

 NO OUTPUT CONTROL FOR STRESS PERIOD    2   TIME STEP 3819
 
 SOLVING FOR HEAD 

 NO OUTPUT CONTROL FOR STRESS PERIOD    2   TIME STEP 3820
 
 SOLVING FOR HEAD 

 NO OUTPUT CONTROL FOR STRESS PERIOD    2   TIME STEP 3821
 
 SOLVING FOR HEAD 

 NO OUTPUT CONTROL FOR STRESS PERIOD    2   TIME STEP 3822
 
 SOLVING FOR HEAD 

 NO OUTPUT CONTROL FOR STRESS PERIOD    2   TIME STEP 3823
 
 SOLVING FOR HEAD 

 NO OUTPUT CONTROL FOR STRESS PERIOD    2   TIME STEP 3824
 
 SOLVING FOR HEAD 

 NO OUTPUT CONTROL FOR STRESS PERIOD    2   TIME STEP 3825
 
 SOLVING FOR HEAD 

 NO OUTPUT CONTROL FOR STRESS PERIOD    2   TIME STEP 3826
 
 SOLVING FOR HEAD 

 NO OUTPUT CONTROL FOR STRESS PERIOD    2   TIME STEP 3827
 
 SOLVING FOR HEAD 

 NO OUTPUT CONTROL FOR STRESS PERIOD    2   TIME STEP 3828
 
 SOLVING FOR HEAD 

 NO OUTPUT CONTROL FOR STRESS PERIOD    2   TIME STEP 3829
 
 SOLVING FOR HEAD 

 NO OUTPUT CONTROL FOR STRESS PERIOD    2   TIME STEP 3830
 
 SOLVING FOR HEAD 

 NO OUTPUT CONTROL FOR STRESS PERIOD    2   TIME STEP 3831
 
 SOLVING FOR HEAD 

 NO OUTPUT CONTROL FOR STRESS PERIOD    2   TIME STEP 3832
 
 SOLVING FOR HEAD 

 NO OUTPUT CONTROL FOR STRESS PERIOD    2   TIME STEP 3833
 
 SOLVING FOR HEAD 

 NO OUTPUT CONTROL FOR STRESS PERIOD    2   TIME STEP 3834
 
 SOLVING FOR HEAD 

 NO OUTPUT CONTROL FOR STRESS PERIOD    2   TIME STEP 3835
 
 SOLVING FOR HEAD 

 NO OUTPUT CONTROL FOR STRESS PERIOD    2   TIME STEP 3836
 
 SOLVING FOR HEAD 

 NO OUTPUT CONTROL FOR STRESS PERIOD    2   TIME STEP 3837
 
 SOLVING FOR HEAD 

 NO OUTPUT CONTROL FOR STRESS PERIOD    2   TIME STEP 3838
 
 SOLVING FOR HEAD 

 NO OUTPUT CONTROL FOR STRESS PERIOD    2   TIME STEP 3839
 
 SOLVING FOR HEAD 

 NO OUTPUT CONTROL FOR STRESS PERIOD    2   TIME STEP 3840
 
 SOLVING FOR HEAD 

 NO OUTPUT CONTROL FOR STRESS PERIOD    2   TIME STEP 3841
 
 SOLVING FOR HEAD 

 NO OUTPUT CONTROL FOR STRESS PERIOD    2   TIME STEP 3842
 
 SOLVING FOR HEAD 

 NO OUTPUT CONTROL FOR STRESS PERIOD    2   TIME STEP 3843
 
 SOLVING FOR HEAD 

 NO OUTPUT CONTROL FOR STRESS PERIOD    2   TIME STEP 3844
 
 SOLVING FOR HEAD 

 NO OUTPUT CONTROL FOR STRESS PERIOD    2   TIME STEP 3845
 
 SOLVING FOR HEAD 

 NO OUTPUT CONTROL FOR STRESS PERIOD    2   TIME STEP 3846
 
 SOLVING FOR HEAD 

 NO OUTPUT CONTROL FOR STRESS PERIOD    2   TIME STEP 3847
 
 SOLVING FOR HEAD 

 NO OUTPUT CONTROL FOR STRESS PERIOD    2   TIME STEP 3848
 
 SOLVING FOR HEAD 

 NO OUTPUT CONTROL FOR STRESS PERIOD    2   TIME STEP 3849
 
 SOLVING FOR HEAD 

 NO OUTPUT CONTROL FOR STRESS PERIOD    2   TIME STEP 3850
 
 SOLVING FOR HEAD 

 NO OUTPUT CONTROL FOR STRESS PERIOD    2   TIME STEP 3851
 
 SOLVING FOR HEAD 

 NO OUTPUT CONTROL FOR STRESS PERIOD    2   TIME STEP 3852
 
 SOLVING FOR HEAD 

 NO OUTPUT CONTROL FOR STRESS PERIOD    2   TIME STEP 3853
 
 SOLVING FOR HEAD 

 NO OUTPUT CONTROL FOR STRESS PERIOD    2   TIME STEP 3854
 
 SOLVING FOR HEAD 

 NO OUTPUT CONTROL FOR STRESS PERIOD    2   TIME STEP 3855
 
 SOLVING FOR HEAD 

 NO OUTPUT CONTROL FOR STRESS PERIOD    2   TIME STEP 3856
 
 SOLVING FOR HEAD 

 NO OUTPUT CONTROL FOR STRESS PERIOD    2   TIME STEP 3857
 
 SOLVING FOR HEAD 

 NO OUTPUT CONTROL FOR STRESS PERIOD    2   TIME STEP 3858
 
 SOLVING FOR HEAD 

 NO OUTPUT CONTROL FOR STRESS PERIOD    2   TIME STEP 3859
 
 SOLVING FOR HEAD 

 NO OUTPUT CONTROL FOR STRESS PERIOD    2   TIME STEP 3860
 
 SOLVING FOR HEAD 

 NO OUTPUT CONTROL FOR STRESS PERIOD    2   TIME STEP 3861
 
 SOLVING FOR HEAD 

 NO OUTPUT CONTROL FOR STRESS PERIOD    2   TIME STEP 3862
 
 SOLVING FOR HEAD 

 NO OUTPUT CONTROL FOR STRESS PERIOD    2   TIME STEP 3863
 
 SOLVING FOR HEAD 

 NO OUTPUT CONTROL FOR STRESS PERIOD    2   TIME STEP 3864
 
 SOLVING FOR HEAD 

 NO OUTPUT CONTROL FOR STRESS PERIOD    2   TIME STEP 3865
 
 SOLVING FOR HEAD 

 NO OUTPUT CONTROL FOR STRESS PERIOD    2   TIME STEP 3866
 
 SOLVING FOR HEAD 

 NO OUTPUT CONTROL FOR STRESS PERIOD    2   TIME STEP 3867
 
 SOLVING FOR HEAD 

 NO OUTPUT CONTROL FOR STRESS PERIOD    2   TIME STEP 3868
 
 SOLVING FOR HEAD 

 NO OUTPUT CONTROL FOR STRESS PERIOD    2   TIME STEP 3869
 
 SOLVING FOR HEAD 

 NO OUTPUT CONTROL FOR STRESS PERIOD    2   TIME STEP 3870
 
 SOLVING FOR HEAD 

 NO OUTPUT CONTROL FOR STRESS PERIOD    2   TIME STEP 3871
 
 SOLVING FOR HEAD 

 NO OUTPUT CONTROL FOR STRESS PERIOD    2   TIME STEP 3872
 
 SOLVING FOR HEAD 

 NO OUTPUT CONTROL FOR STRESS PERIOD    2   TIME STEP 3873
 
 SOLVING FOR HEAD 

 NO OUTPUT CONTROL FOR STRESS PERIOD    2   TIME STEP 3874
 
 SOLVING FOR HEAD 

 NO OUTPUT CONTROL FOR STRESS PERIOD    2   TIME STEP 3875
 
 SOLVING FOR HEAD 

 NO OUTPUT CONTROL FOR STRESS PERIOD    2   TIME STEP 3876
 
 SOLVING FOR HEAD 

 NO OUTPUT CONTROL FOR STRESS PERIOD    2   TIME STEP 3877
 
 SOLVING FOR HEAD 

 NO OUTPUT CONTROL FOR STRESS PERIOD    2   TIME STEP 3878
 
 SOLVING FOR HEAD 

 NO OUTPUT CONTROL FOR STRESS PERIOD    2   TIME STEP 3879
 
 SOLVING FOR HEAD 

 NO OUTPUT CONTROL FOR STRESS PERIOD    2   TIME STEP 3880
 
 SOLVING FOR HEAD 

 NO OUTPUT CONTROL FOR STRESS PERIOD    2   TIME STEP 3881
 
 SOLVING FOR HEAD 

 NO OUTPUT CONTROL FOR STRESS PERIOD    2   TIME STEP 3882
 
 SOLVING FOR HEAD 

 NO OUTPUT CONTROL FOR STRESS PERIOD    2   TIME STEP 3883
 
 SOLVING FOR HEAD 

 NO OUTPUT CONTROL FOR STRESS PERIOD    2   TIME STEP 3884
 
 SOLVING FOR HEAD 

 NO OUTPUT CONTROL FOR STRESS PERIOD    2   TIME STEP 3885
 
 SOLVING FOR HEAD 

 NO OUTPUT CONTROL FOR STRESS PERIOD    2   TIME STEP 3886
 
 SOLVING FOR HEAD 

 NO OUTPUT CONTROL FOR STRESS PERIOD    2   TIME STEP 3887
 
 SOLVING FOR HEAD 

 NO OUTPUT CONTROL FOR STRESS PERIOD    2   TIME STEP 3888
 
 SOLVING FOR HEAD 

 NO OUTPUT CONTROL FOR STRESS PERIOD    2   TIME STEP 3889
 
 SOLVING FOR HEAD 

 NO OUTPUT CONTROL FOR STRESS PERIOD    2   TIME STEP 3890
 
 SOLVING FOR HEAD 

 NO OUTPUT CONTROL FOR STRESS PERIOD    2   TIME STEP 3891
 
 SOLVING FOR HEAD 

 NO OUTPUT CONTROL FOR STRESS PERIOD    2   TIME STEP 3892
 
 SOLVING FOR HEAD 

 NO OUTPUT CONTROL FOR STRESS PERIOD    2   TIME STEP 3893
 
 SOLVING FOR HEAD 

 NO OUTPUT CONTROL FOR STRESS PERIOD    2   TIME STEP 3894
 
 SOLVING FOR HEAD 

 NO OUTPUT CONTROL FOR STRESS PERIOD    2   TIME STEP 3895
 
 SOLVING FOR HEAD 

 NO OUTPUT CONTROL FOR STRESS PERIOD    2   TIME STEP 3896
 
 SOLVING FOR HEAD 

 NO OUTPUT CONTROL FOR STRESS PERIOD    2   TIME STEP 3897
 
 SOLVING FOR HEAD 

 NO OUTPUT CONTROL FOR STRESS PERIOD    2   TIME STEP 3898
 
 SOLVING FOR HEAD 

 NO OUTPUT CONTROL FOR STRESS PERIOD    2   TIME STEP 3899
 
 SOLVING FOR HEAD 

 NO OUTPUT CONTROL FOR STRESS PERIOD    2   TIME STEP 3900
 
 SOLVING FOR HEAD 

 NO OUTPUT CONTROL FOR STRESS PERIOD    2   TIME STEP 3901
 
 SOLVING FOR HEAD 

 NO OUTPUT CONTROL FOR STRESS PERIOD    2   TIME STEP 3902
 
 SOLVING FOR HEAD 

 NO OUTPUT CONTROL FOR STRESS PERIOD    2   TIME STEP 3903
 
 SOLVING FOR HEAD 

 NO OUTPUT CONTROL FOR STRESS PERIOD    2   TIME STEP 3904
 
 SOLVING FOR HEAD 

 NO OUTPUT CONTROL FOR STRESS PERIOD    2   TIME STEP 3905
 
 SOLVING FOR HEAD 

 NO OUTPUT CONTROL FOR STRESS PERIOD    2   TIME STEP 3906
 
 SOLVING FOR HEAD 

 NO OUTPUT CONTROL FOR STRESS PERIOD    2   TIME STEP 3907
 
 SOLVING FOR HEAD 

 NO OUTPUT CONTROL FOR STRESS PERIOD    2   TIME STEP 3908
 
 SOLVING FOR HEAD 

 NO OUTPUT CONTROL FOR STRESS PERIOD    2   TIME STEP 3909
 
 SOLVING FOR HEAD 

 NO OUTPUT CONTROL FOR STRESS PERIOD    2   TIME STEP 3910
 
 SOLVING FOR HEAD 

 NO OUTPUT CONTROL FOR STRESS PERIOD    2   TIME STEP 3911
 
 SOLVING FOR HEAD 

 NO OUTPUT CONTROL FOR STRESS PERIOD    2   TIME STEP 3912
 
 SOLVING FOR HEAD 

 NO OUTPUT CONTROL FOR STRESS PERIOD    2   TIME STEP 3913
 
 SOLVING FOR HEAD 

 NO OUTPUT CONTROL FOR STRESS PERIOD    2   TIME STEP 3914
 
 SOLVING FOR HEAD 

 NO OUTPUT CONTROL FOR STRESS PERIOD    2   TIME STEP 3915
 
 SOLVING FOR HEAD 

 NO OUTPUT CONTROL FOR STRESS PERIOD    2   TIME STEP 3916
 
 SOLVING FOR HEAD 

 NO OUTPUT CONTROL FOR STRESS PERIOD    2   TIME STEP 3917
 
 SOLVING FOR HEAD 

 NO OUTPUT CONTROL FOR STRESS PERIOD    2   TIME STEP 3918
 
 SOLVING FOR HEAD 

 NO OUTPUT CONTROL FOR STRESS PERIOD    2   TIME STEP 3919
 
 SOLVING FOR HEAD 

 NO OUTPUT CONTROL FOR STRESS PERIOD    2   TIME STEP 3920
 
 SOLVING FOR HEAD 

 NO OUTPUT CONTROL FOR STRESS PERIOD    2   TIME STEP 3921
 
 SOLVING FOR HEAD 

 NO OUTPUT CONTROL FOR STRESS PERIOD    2   TIME STEP 3922
 
 SOLVING FOR HEAD 

 NO OUTPUT CONTROL FOR STRESS PERIOD    2   TIME STEP 3923
 
 SOLVING FOR HEAD 

 NO OUTPUT CONTROL FOR STRESS PERIOD    2   TIME STEP 3924
 
 SOLVING FOR HEAD 

 NO OUTPUT CONTROL FOR STRESS PERIOD    2   TIME STEP 3925
 
 SOLVING FOR HEAD 

 NO OUTPUT CONTROL FOR STRESS PERIOD    2   TIME STEP 3926
 
 SOLVING FOR HEAD 

 NO OUTPUT CONTROL FOR STRESS PERIOD    2   TIME STEP 3927
 
 SOLVING FOR HEAD 

 NO OUTPUT CONTROL FOR STRESS PERIOD    2   TIME STEP 3928
 
 SOLVING FOR HEAD 

 NO OUTPUT CONTROL FOR STRESS PERIOD    2   TIME STEP 3929
 
 SOLVING FOR HEAD 

 NO OUTPUT CONTROL FOR STRESS PERIOD    2   TIME STEP 3930
 
 SOLVING FOR HEAD 

 NO OUTPUT CONTROL FOR STRESS PERIOD    2   TIME STEP 3931
 
 SOLVING FOR HEAD 

 NO OUTPUT CONTROL FOR STRESS PERIOD    2   TIME STEP 3932
 
 SOLVING FOR HEAD 

 NO OUTPUT CONTROL FOR STRESS PERIOD    2   TIME STEP 3933
 
 SOLVING FOR HEAD 

 NO OUTPUT CONTROL FOR STRESS PERIOD    2   TIME STEP 3934
 
 SOLVING FOR HEAD 

 NO OUTPUT CONTROL FOR STRESS PERIOD    2   TIME STEP 3935
 
 SOLVING FOR HEAD 

 NO OUTPUT CONTROL FOR STRESS PERIOD    2   TIME STEP 3936
 
 SOLVING FOR HEAD 

 NO OUTPUT CONTROL FOR STRESS PERIOD    2   TIME STEP 3937
 
 SOLVING FOR HEAD 

 NO OUTPUT CONTROL FOR STRESS PERIOD    2   TIME STEP 3938
 
 SOLVING FOR HEAD 

 NO OUTPUT CONTROL FOR STRESS PERIOD    2   TIME STEP 3939
 
 SOLVING FOR HEAD 

 NO OUTPUT CONTROL FOR STRESS PERIOD    2   TIME STEP 3940
 
 SOLVING FOR HEAD 

 NO OUTPUT CONTROL FOR STRESS PERIOD    2   TIME STEP 3941
 
 SOLVING FOR HEAD 

 NO OUTPUT CONTROL FOR STRESS PERIOD    2   TIME STEP 3942
 
 SOLVING FOR HEAD 

 NO OUTPUT CONTROL FOR STRESS PERIOD    2   TIME STEP 3943
 
 SOLVING FOR HEAD 

 NO OUTPUT CONTROL FOR STRESS PERIOD    2   TIME STEP 3944
 
 SOLVING FOR HEAD 

 NO OUTPUT CONTROL FOR STRESS PERIOD    2   TIME STEP 3945
 
 SOLVING FOR HEAD 

 NO OUTPUT CONTROL FOR STRESS PERIOD    2   TIME STEP 3946
 
 SOLVING FOR HEAD 

 NO OUTPUT CONTROL FOR STRESS PERIOD    2   TIME STEP 3947
 
 SOLVING FOR HEAD 

 NO OUTPUT CONTROL FOR STRESS PERIOD    2   TIME STEP 3948
 
 SOLVING FOR HEAD 

 NO OUTPUT CONTROL FOR STRESS PERIOD    2   TIME STEP 3949
 
 SOLVING FOR HEAD 

 NO OUTPUT CONTROL FOR STRESS PERIOD    2   TIME STEP 3950
 
 SOLVING FOR HEAD 

 NO OUTPUT CONTROL FOR STRESS PERIOD    2   TIME STEP 3951
 
 SOLVING FOR HEAD 

 NO OUTPUT CONTROL FOR STRESS PERIOD    2   TIME STEP 3952
 
 SOLVING FOR HEAD 

 NO OUTPUT CONTROL FOR STRESS PERIOD    2   TIME STEP 3953
 
 SOLVING FOR HEAD 

 NO OUTPUT CONTROL FOR STRESS PERIOD    2   TIME STEP 3954
 
 SOLVING FOR HEAD 

 NO OUTPUT CONTROL FOR STRESS PERIOD    2   TIME STEP 3955
 
 SOLVING FOR HEAD 

 NO OUTPUT CONTROL FOR STRESS PERIOD    2   TIME STEP 3956
 
 SOLVING FOR HEAD 

 NO OUTPUT CONTROL FOR STRESS PERIOD    2   TIME STEP 3957
 
 SOLVING FOR HEAD 

 NO OUTPUT CONTROL FOR STRESS PERIOD    2   TIME STEP 3958
 
 SOLVING FOR HEAD 

 NO OUTPUT CONTROL FOR STRESS PERIOD    2   TIME STEP 3959
 
 SOLVING FOR HEAD 

 NO OUTPUT CONTROL FOR STRESS PERIOD    2   TIME STEP 3960
 
 SOLVING FOR HEAD 

 NO OUTPUT CONTROL FOR STRESS PERIOD    2   TIME STEP 3961
 
 SOLVING FOR HEAD 

 NO OUTPUT CONTROL FOR STRESS PERIOD    2   TIME STEP 3962
 
 SOLVING FOR HEAD 

 NO OUTPUT CONTROL FOR STRESS PERIOD    2   TIME STEP 3963
 
 SOLVING FOR HEAD 

 NO OUTPUT CONTROL FOR STRESS PERIOD    2   TIME STEP 3964
 
 SOLVING FOR HEAD 

 NO OUTPUT CONTROL FOR STRESS PERIOD    2   TIME STEP 3965
 
 SOLVING FOR HEAD 

 NO OUTPUT CONTROL FOR STRESS PERIOD    2   TIME STEP 3966
 
 SOLVING FOR HEAD 

 NO OUTPUT CONTROL FOR STRESS PERIOD    2   TIME STEP 3967
 
 SOLVING FOR HEAD 

 NO OUTPUT CONTROL FOR STRESS PERIOD    2   TIME STEP 3968
 
 SOLVING FOR HEAD 

 NO OUTPUT CONTROL FOR STRESS PERIOD    2   TIME STEP 3969
 
 SOLVING FOR HEAD 

 NO OUTPUT CONTROL FOR STRESS PERIOD    2   TIME STEP 3970
 
 SOLVING FOR HEAD 

 NO OUTPUT CONTROL FOR STRESS PERIOD    2   TIME STEP 3971
 
 SOLVING FOR HEAD 

 NO OUTPUT CONTROL FOR STRESS PERIOD    2   TIME STEP 3972
 
 SOLVING FOR HEAD 

 NO OUTPUT CONTROL FOR STRESS PERIOD    2   TIME STEP 3973
 
 SOLVING FOR HEAD 

 NO OUTPUT CONTROL FOR STRESS PERIOD    2   TIME STEP 3974
 
 SOLVING FOR HEAD 

 NO OUTPUT CONTROL FOR STRESS PERIOD    2   TIME STEP 3975
 
 SOLVING FOR HEAD 

 NO OUTPUT CONTROL FOR STRESS PERIOD    2   TIME STEP 3976
 
 SOLVING FOR HEAD 

 NO OUTPUT CONTROL FOR STRESS PERIOD    2   TIME STEP 3977
 
 SOLVING FOR HEAD 

 NO OUTPUT CONTROL FOR STRESS PERIOD    2   TIME STEP 3978
 
 SOLVING FOR HEAD 

 NO OUTPUT CONTROL FOR STRESS PERIOD    2   TIME STEP 3979
 
 SOLVING FOR HEAD 

 NO OUTPUT CONTROL FOR STRESS PERIOD    2   TIME STEP 3980
 
 SOLVING FOR HEAD 

 NO OUTPUT CONTROL FOR STRESS PERIOD    2   TIME STEP 3981
 
 SOLVING FOR HEAD 

 NO OUTPUT CONTROL FOR STRESS PERIOD    2   TIME STEP 3982
 
 SOLVING FOR HEAD 

 NO OUTPUT CONTROL FOR STRESS PERIOD    2   TIME STEP 3983
 
 SOLVING FOR HEAD 

 NO OUTPUT CONTROL FOR STRESS PERIOD    2   TIME STEP 3984
 
 SOLVING FOR HEAD 

 NO OUTPUT CONTROL FOR STRESS PERIOD    2   TIME STEP 3985
 
 SOLVING FOR HEAD 

 NO OUTPUT CONTROL FOR STRESS PERIOD    2   TIME STEP 3986
 
 SOLVING FOR HEAD 

 NO OUTPUT CONTROL FOR STRESS PERIOD    2   TIME STEP 3987
 
 SOLVING FOR HEAD 

 NO OUTPUT CONTROL FOR STRESS PERIOD    2   TIME STEP 3988
 
 SOLVING FOR HEAD 

 NO OUTPUT CONTROL FOR STRESS PERIOD    2   TIME STEP 3989
 
 SOLVING FOR HEAD 

 NO OUTPUT CONTROL FOR STRESS PERIOD    2   TIME STEP 3990
 
 SOLVING FOR HEAD 

 NO OUTPUT CONTROL FOR STRESS PERIOD    2   TIME STEP 3991
 
 SOLVING FOR HEAD 

 NO OUTPUT CONTROL FOR STRESS PERIOD    2   TIME STEP 3992
 
 SOLVING FOR HEAD 

 NO OUTPUT CONTROL FOR STRESS PERIOD    2   TIME STEP 3993
 
 SOLVING FOR HEAD 

 NO OUTPUT CONTROL FOR STRESS PERIOD    2   TIME STEP 3994
 
 SOLVING FOR HEAD 

 NO OUTPUT CONTROL FOR STRESS PERIOD    2   TIME STEP 3995
 
 SOLVING FOR HEAD 

 NO OUTPUT CONTROL FOR STRESS PERIOD    2   TIME STEP 3996
 
 SOLVING FOR HEAD 

 NO OUTPUT CONTROL FOR STRESS PERIOD    2   TIME STEP 3997
 
 SOLVING FOR HEAD 

 NO OUTPUT CONTROL FOR STRESS PERIOD    2   TIME STEP 3998
 
 SOLVING FOR HEAD 

 NO OUTPUT CONTROL FOR STRESS PERIOD    2   TIME STEP 3999
 
 SOLVING FOR HEAD 

 NO OUTPUT CONTROL FOR STRESS PERIOD    2   TIME STEP 4000
 
 SOLVING FOR HEAD 

 NO OUTPUT CONTROL FOR STRESS PERIOD    2   TIME STEP 4001
 
 SOLVING FOR HEAD 

 NO OUTPUT CONTROL FOR STRESS PERIOD    2   TIME STEP 4002
 
 SOLVING FOR HEAD 

 NO OUTPUT CONTROL FOR STRESS PERIOD    2   TIME STEP 4003
 
 SOLVING FOR HEAD 

 NO OUTPUT CONTROL FOR STRESS PERIOD    2   TIME STEP 4004
 
 SOLVING FOR HEAD 

 NO OUTPUT CONTROL FOR STRESS PERIOD    2   TIME STEP 4005
 
 SOLVING FOR HEAD 

 NO OUTPUT CONTROL FOR STRESS PERIOD    2   TIME STEP 4006
 
 SOLVING FOR HEAD 

 NO OUTPUT CONTROL FOR STRESS PERIOD    2   TIME STEP 4007
 
 SOLVING FOR HEAD 

 NO OUTPUT CONTROL FOR STRESS PERIOD    2   TIME STEP 4008
 
 SOLVING FOR HEAD 

 NO OUTPUT CONTROL FOR STRESS PERIOD    2   TIME STEP 4009
 
 SOLVING FOR HEAD 

 NO OUTPUT CONTROL FOR STRESS PERIOD    2   TIME STEP 4010
 
 SOLVING FOR HEAD 

 NO OUTPUT CONTROL FOR STRESS PERIOD    2   TIME STEP 4011
 
 SOLVING FOR HEAD 

 NO OUTPUT CONTROL FOR STRESS PERIOD    2   TIME STEP 4012
 
 SOLVING FOR HEAD 

 NO OUTPUT CONTROL FOR STRESS PERIOD    2   TIME STEP 4013
 
 SOLVING FOR HEAD 

 NO OUTPUT CONTROL FOR STRESS PERIOD    2   TIME STEP 4014
 
 SOLVING FOR HEAD 

 NO OUTPUT CONTROL FOR STRESS PERIOD    2   TIME STEP 4015
 
 SOLVING FOR HEAD 

 NO OUTPUT CONTROL FOR STRESS PERIOD    2   TIME STEP 4016
 
 SOLVING FOR HEAD 

 NO OUTPUT CONTROL FOR STRESS PERIOD    2   TIME STEP 4017
 
 SOLVING FOR HEAD 

 NO OUTPUT CONTROL FOR STRESS PERIOD    2   TIME STEP 4018
 
 SOLVING FOR HEAD 

 NO OUTPUT CONTROL FOR STRESS PERIOD    2   TIME STEP 4019
 
 SOLVING FOR HEAD 

 NO OUTPUT CONTROL FOR STRESS PERIOD    2   TIME STEP 4020
 
 SOLVING FOR HEAD 

 NO OUTPUT CONTROL FOR STRESS PERIOD    2   TIME STEP 4021
 
 SOLVING FOR HEAD 

 NO OUTPUT CONTROL FOR STRESS PERIOD    2   TIME STEP 4022
 
 SOLVING FOR HEAD 

 NO OUTPUT CONTROL FOR STRESS PERIOD    2   TIME STEP 4023
 
 SOLVING FOR HEAD 

 NO OUTPUT CONTROL FOR STRESS PERIOD    2   TIME STEP 4024
 
 SOLVING FOR HEAD 

 NO OUTPUT CONTROL FOR STRESS PERIOD    2   TIME STEP 4025
 
 SOLVING FOR HEAD 

 NO OUTPUT CONTROL FOR STRESS PERIOD    2   TIME STEP 4026
 
 SOLVING FOR HEAD 

 NO OUTPUT CONTROL FOR STRESS PERIOD    2   TIME STEP 4027
 
 SOLVING FOR HEAD 

 NO OUTPUT CONTROL FOR STRESS PERIOD    2   TIME STEP 4028
 
 SOLVING FOR HEAD 

 NO OUTPUT CONTROL FOR STRESS PERIOD    2   TIME STEP 4029
 
 SOLVING FOR HEAD 

 NO OUTPUT CONTROL FOR STRESS PERIOD    2   TIME STEP 4030
 
 SOLVING FOR HEAD 

 NO OUTPUT CONTROL FOR STRESS PERIOD    2   TIME STEP 4031
 
 SOLVING FOR HEAD 

 NO OUTPUT CONTROL FOR STRESS PERIOD    2   TIME STEP 4032
 
 SOLVING FOR HEAD 

 NO OUTPUT CONTROL FOR STRESS PERIOD    2   TIME STEP 4033
 
 SOLVING FOR HEAD 

 NO OUTPUT CONTROL FOR STRESS PERIOD    2   TIME STEP 4034
 
 SOLVING FOR HEAD 

 NO OUTPUT CONTROL FOR STRESS PERIOD    2   TIME STEP 4035
 
 SOLVING FOR HEAD 

 NO OUTPUT CONTROL FOR STRESS PERIOD    2   TIME STEP 4036
 
 SOLVING FOR HEAD 

 NO OUTPUT CONTROL FOR STRESS PERIOD    2   TIME STEP 4037
 
 SOLVING FOR HEAD 

 NO OUTPUT CONTROL FOR STRESS PERIOD    2   TIME STEP 4038
 
 SOLVING FOR HEAD 

 NO OUTPUT CONTROL FOR STRESS PERIOD    2   TIME STEP 4039
 
 SOLVING FOR HEAD 

 NO OUTPUT CONTROL FOR STRESS PERIOD    2   TIME STEP 4040
 
 SOLVING FOR HEAD 

 NO OUTPUT CONTROL FOR STRESS PERIOD    2   TIME STEP 4041
 
 SOLVING FOR HEAD 

 NO OUTPUT CONTROL FOR STRESS PERIOD    2   TIME STEP 4042
 
 SOLVING FOR HEAD 

 NO OUTPUT CONTROL FOR STRESS PERIOD    2   TIME STEP 4043
 
 SOLVING FOR HEAD 

 NO OUTPUT CONTROL FOR STRESS PERIOD    2   TIME STEP 4044
 
 SOLVING FOR HEAD 

 NO OUTPUT CONTROL FOR STRESS PERIOD    2   TIME STEP 4045
 
 SOLVING FOR HEAD 

 NO OUTPUT CONTROL FOR STRESS PERIOD    2   TIME STEP 4046
 
 SOLVING FOR HEAD 

 NO OUTPUT CONTROL FOR STRESS PERIOD    2   TIME STEP 4047
 
 SOLVING FOR HEAD 

 NO OUTPUT CONTROL FOR STRESS PERIOD    2   TIME STEP 4048
 
 SOLVING FOR HEAD 

 NO OUTPUT CONTROL FOR STRESS PERIOD    2   TIME STEP 4049
 
 SOLVING FOR HEAD 

 NO OUTPUT CONTROL FOR STRESS PERIOD    2   TIME STEP 4050
 
 SOLVING FOR HEAD 

 NO OUTPUT CONTROL FOR STRESS PERIOD    2   TIME STEP 4051
 
 SOLVING FOR HEAD 

 NO OUTPUT CONTROL FOR STRESS PERIOD    2   TIME STEP 4052
 
 SOLVING FOR HEAD 

 NO OUTPUT CONTROL FOR STRESS PERIOD    2   TIME STEP 4053
 
 SOLVING FOR HEAD 

 NO OUTPUT CONTROL FOR STRESS PERIOD    2   TIME STEP 4054
 
 SOLVING FOR HEAD 

 NO OUTPUT CONTROL FOR STRESS PERIOD    2   TIME STEP 4055
 
 SOLVING FOR HEAD 

 NO OUTPUT CONTROL FOR STRESS PERIOD    2   TIME STEP 4056
 
 SOLVING FOR HEAD 

 NO OUTPUT CONTROL FOR STRESS PERIOD    2   TIME STEP 4057
 
 SOLVING FOR HEAD 

 NO OUTPUT CONTROL FOR STRESS PERIOD    2   TIME STEP 4058
 
 SOLVING FOR HEAD 

 NO OUTPUT CONTROL FOR STRESS PERIOD    2   TIME STEP 4059
 
 SOLVING FOR HEAD 

 NO OUTPUT CONTROL FOR STRESS PERIOD    2   TIME STEP 4060
 
 SOLVING FOR HEAD 

 NO OUTPUT CONTROL FOR STRESS PERIOD    2   TIME STEP 4061
 
 SOLVING FOR HEAD 

 NO OUTPUT CONTROL FOR STRESS PERIOD    2   TIME STEP 4062
 
 SOLVING FOR HEAD 

 NO OUTPUT CONTROL FOR STRESS PERIOD    2   TIME STEP 4063
 
 SOLVING FOR HEAD 

 NO OUTPUT CONTROL FOR STRESS PERIOD    2   TIME STEP 4064
 
 SOLVING FOR HEAD 

 NO OUTPUT CONTROL FOR STRESS PERIOD    2   TIME STEP 4065
 
 SOLVING FOR HEAD 

 NO OUTPUT CONTROL FOR STRESS PERIOD    2   TIME STEP 4066
 
 SOLVING FOR HEAD 

 NO OUTPUT CONTROL FOR STRESS PERIOD    2   TIME STEP 4067
 
 SOLVING FOR HEAD 

 NO OUTPUT CONTROL FOR STRESS PERIOD    2   TIME STEP 4068
 
 SOLVING FOR HEAD 

 NO OUTPUT CONTROL FOR STRESS PERIOD    2   TIME STEP 4069
 
 SOLVING FOR HEAD 

 NO OUTPUT CONTROL FOR STRESS PERIOD    2   TIME STEP 4070
 
 SOLVING FOR HEAD 

 NO OUTPUT CONTROL FOR STRESS PERIOD    2   TIME STEP 4071
 
 SOLVING FOR HEAD 

 NO OUTPUT CONTROL FOR STRESS PERIOD    2   TIME STEP 4072
 
 SOLVING FOR HEAD 

 NO OUTPUT CONTROL FOR STRESS PERIOD    2   TIME STEP 4073
 
 SOLVING FOR HEAD 

 NO OUTPUT CONTROL FOR STRESS PERIOD    2   TIME STEP 4074
 
 SOLVING FOR HEAD 

 NO OUTPUT CONTROL FOR STRESS PERIOD    2   TIME STEP 4075
 
 SOLVING FOR HEAD 

 NO OUTPUT CONTROL FOR STRESS PERIOD    2   TIME STEP 4076
 
 SOLVING FOR HEAD 

 NO OUTPUT CONTROL FOR STRESS PERIOD    2   TIME STEP 4077
 
 SOLVING FOR HEAD 

 NO OUTPUT CONTROL FOR STRESS PERIOD    2   TIME STEP 4078
 
 SOLVING FOR HEAD 

 NO OUTPUT CONTROL FOR STRESS PERIOD    2   TIME STEP 4079
 
 SOLVING FOR HEAD 

 NO OUTPUT CONTROL FOR STRESS PERIOD    2   TIME STEP 4080
 
 SOLVING FOR HEAD 

 NO OUTPUT CONTROL FOR STRESS PERIOD    2   TIME STEP 4081
 
 SOLVING FOR HEAD 

 NO OUTPUT CONTROL FOR STRESS PERIOD    2   TIME STEP 4082
 
 SOLVING FOR HEAD 

 NO OUTPUT CONTROL FOR STRESS PERIOD    2   TIME STEP 4083
 
 SOLVING FOR HEAD 

 NO OUTPUT CONTROL FOR STRESS PERIOD    2   TIME STEP 4084
 
 SOLVING FOR HEAD 

 NO OUTPUT CONTROL FOR STRESS PERIOD    2   TIME STEP 4085
 
 SOLVING FOR HEAD 

 NO OUTPUT CONTROL FOR STRESS PERIOD    2   TIME STEP 4086
 
 SOLVING FOR HEAD 

 NO OUTPUT CONTROL FOR STRESS PERIOD    2   TIME STEP 4087
 
 SOLVING FOR HEAD 

 NO OUTPUT CONTROL FOR STRESS PERIOD    2   TIME STEP 4088
 
 SOLVING FOR HEAD 

 NO OUTPUT CONTROL FOR STRESS PERIOD    2   TIME STEP 4089
 
 SOLVING FOR HEAD 

 NO OUTPUT CONTROL FOR STRESS PERIOD    2   TIME STEP 4090
 
 SOLVING FOR HEAD 

 NO OUTPUT CONTROL FOR STRESS PERIOD    2   TIME STEP 4091
 
 SOLVING FOR HEAD 

 NO OUTPUT CONTROL FOR STRESS PERIOD    2   TIME STEP 4092
 
 SOLVING FOR HEAD 

 NO OUTPUT CONTROL FOR STRESS PERIOD    2   TIME STEP 4093
 
 SOLVING FOR HEAD 

 NO OUTPUT CONTROL FOR STRESS PERIOD    2   TIME STEP 4094
 
 SOLVING FOR HEAD 

 NO OUTPUT CONTROL FOR STRESS PERIOD    2   TIME STEP 4095
 
 SOLVING FOR HEAD 

 NO OUTPUT CONTROL FOR STRESS PERIOD    2   TIME STEP 4096
 
 SOLVING FOR HEAD 

 NO OUTPUT CONTROL FOR STRESS PERIOD    2   TIME STEP 4097
 
 SOLVING FOR HEAD 

 NO OUTPUT CONTROL FOR STRESS PERIOD    2   TIME STEP 4098
 
 SOLVING FOR HEAD 

 NO OUTPUT CONTROL FOR STRESS PERIOD    2   TIME STEP 4099
 
 SOLVING FOR HEAD 

 NO OUTPUT CONTROL FOR STRESS PERIOD    2   TIME STEP 4100
 
 SOLVING FOR HEAD 

 NO OUTPUT CONTROL FOR STRESS PERIOD    2   TIME STEP 4101
 
 SOLVING FOR HEAD 

 NO OUTPUT CONTROL FOR STRESS PERIOD    2   TIME STEP 4102
 
 SOLVING FOR HEAD 

 NO OUTPUT CONTROL FOR STRESS PERIOD    2   TIME STEP 4103
 
 SOLVING FOR HEAD 

 NO OUTPUT CONTROL FOR STRESS PERIOD    2   TIME STEP 4104
 
 SOLVING FOR HEAD 

 NO OUTPUT CONTROL FOR STRESS PERIOD    2   TIME STEP 4105
 
 SOLVING FOR HEAD 

 NO OUTPUT CONTROL FOR STRESS PERIOD    2   TIME STEP 4106
 
 SOLVING FOR HEAD 

 NO OUTPUT CONTROL FOR STRESS PERIOD    2   TIME STEP 4107
 
 SOLVING FOR HEAD 

 NO OUTPUT CONTROL FOR STRESS PERIOD    2   TIME STEP 4108
 
 SOLVING FOR HEAD 

 NO OUTPUT CONTROL FOR STRESS PERIOD    2   TIME STEP 4109
 
 SOLVING FOR HEAD 

 NO OUTPUT CONTROL FOR STRESS PERIOD    2   TIME STEP 4110
 
 SOLVING FOR HEAD 

 NO OUTPUT CONTROL FOR STRESS PERIOD    2   TIME STEP 4111
 
 SOLVING FOR HEAD 

 NO OUTPUT CONTROL FOR STRESS PERIOD    2   TIME STEP 4112
 
 SOLVING FOR HEAD 

 NO OUTPUT CONTROL FOR STRESS PERIOD    2   TIME STEP 4113
 
 SOLVING FOR HEAD 

 NO OUTPUT CONTROL FOR STRESS PERIOD    2   TIME STEP 4114
 
 SOLVING FOR HEAD 

 NO OUTPUT CONTROL FOR STRESS PERIOD    2   TIME STEP 4115
 
 SOLVING FOR HEAD 

 NO OUTPUT CONTROL FOR STRESS PERIOD    2   TIME STEP 4116
 
 SOLVING FOR HEAD 

 NO OUTPUT CONTROL FOR STRESS PERIOD    2   TIME STEP 4117
 
 SOLVING FOR HEAD 

 NO OUTPUT CONTROL FOR STRESS PERIOD    2   TIME STEP 4118
 
 SOLVING FOR HEAD 

 NO OUTPUT CONTROL FOR STRESS PERIOD    2   TIME STEP 4119
 
 SOLVING FOR HEAD 

 NO OUTPUT CONTROL FOR STRESS PERIOD    2   TIME STEP 4120
 
 SOLVING FOR HEAD 

 NO OUTPUT CONTROL FOR STRESS PERIOD    2   TIME STEP 4121
 
 SOLVING FOR HEAD 

 NO OUTPUT CONTROL FOR STRESS PERIOD    2   TIME STEP 4122
 
 SOLVING FOR HEAD 

 NO OUTPUT CONTROL FOR STRESS PERIOD    2   TIME STEP 4123
 
 SOLVING FOR HEAD 

 NO OUTPUT CONTROL FOR STRESS PERIOD    2   TIME STEP 4124
 
 SOLVING FOR HEAD 

 NO OUTPUT CONTROL FOR STRESS PERIOD    2   TIME STEP 4125
 
 SOLVING FOR HEAD 

 NO OUTPUT CONTROL FOR STRESS PERIOD    2   TIME STEP 4126
 
 SOLVING FOR HEAD 

 NO OUTPUT CONTROL FOR STRESS PERIOD    2   TIME STEP 4127
 
 SOLVING FOR HEAD 

 NO OUTPUT CONTROL FOR STRESS PERIOD    2   TIME STEP 4128
 
 SOLVING FOR HEAD 

 NO OUTPUT CONTROL FOR STRESS PERIOD    2   TIME STEP 4129
 
 SOLVING FOR HEAD 

 NO OUTPUT CONTROL FOR STRESS PERIOD    2   TIME STEP 4130
 
 SOLVING FOR HEAD 

 NO OUTPUT CONTROL FOR STRESS PERIOD    2   TIME STEP 4131
 
 SOLVING FOR HEAD 

 NO OUTPUT CONTROL FOR STRESS PERIOD    2   TIME STEP 4132
 
 SOLVING FOR HEAD 

 NO OUTPUT CONTROL FOR STRESS PERIOD    2   TIME STEP 4133
 
 SOLVING FOR HEAD 

 NO OUTPUT CONTROL FOR STRESS PERIOD    2   TIME STEP 4134
 
 SOLVING FOR HEAD 

 NO OUTPUT CONTROL FOR STRESS PERIOD    2   TIME STEP 4135
 
 SOLVING FOR HEAD 

 NO OUTPUT CONTROL FOR STRESS PERIOD    2   TIME STEP 4136
 
 SOLVING FOR HEAD 

 NO OUTPUT CONTROL FOR STRESS PERIOD    2   TIME STEP 4137
 
 SOLVING FOR HEAD 

 NO OUTPUT CONTROL FOR STRESS PERIOD    2   TIME STEP 4138
 
 SOLVING FOR HEAD 

 NO OUTPUT CONTROL FOR STRESS PERIOD    2   TIME STEP 4139
 
 SOLVING FOR HEAD 

 NO OUTPUT CONTROL FOR STRESS PERIOD    2   TIME STEP 4140
 
 SOLVING FOR HEAD 

 NO OUTPUT CONTROL FOR STRESS PERIOD    2   TIME STEP 4141
 
 SOLVING FOR HEAD 

 NO OUTPUT CONTROL FOR STRESS PERIOD    2   TIME STEP 4142
 
 SOLVING FOR HEAD 

 NO OUTPUT CONTROL FOR STRESS PERIOD    2   TIME STEP 4143
 
 SOLVING FOR HEAD 

 NO OUTPUT CONTROL FOR STRESS PERIOD    2   TIME STEP 4144
 
 SOLVING FOR HEAD 

 NO OUTPUT CONTROL FOR STRESS PERIOD    2   TIME STEP 4145
 
 SOLVING FOR HEAD 

 NO OUTPUT CONTROL FOR STRESS PERIOD    2   TIME STEP 4146
 
 SOLVING FOR HEAD 

 NO OUTPUT CONTROL FOR STRESS PERIOD    2   TIME STEP 4147
 
 SOLVING FOR HEAD 

 NO OUTPUT CONTROL FOR STRESS PERIOD    2   TIME STEP 4148
 
 SOLVING FOR HEAD 

 NO OUTPUT CONTROL FOR STRESS PERIOD    2   TIME STEP 4149
 
 SOLVING FOR HEAD 

 NO OUTPUT CONTROL FOR STRESS PERIOD    2   TIME STEP 4150
 
 SOLVING FOR HEAD 

 NO OUTPUT CONTROL FOR STRESS PERIOD    2   TIME STEP 4151
 
 SOLVING FOR HEAD 

 NO OUTPUT CONTROL FOR STRESS PERIOD    2   TIME STEP 4152
 
 SOLVING FOR HEAD 

 NO OUTPUT CONTROL FOR STRESS PERIOD    2   TIME STEP 4153
 
 SOLVING FOR HEAD 

 NO OUTPUT CONTROL FOR STRESS PERIOD    2   TIME STEP 4154
 
 SOLVING FOR HEAD 

 NO OUTPUT CONTROL FOR STRESS PERIOD    2   TIME STEP 4155
 
 SOLVING FOR HEAD 

 NO OUTPUT CONTROL FOR STRESS PERIOD    2   TIME STEP 4156
 
 SOLVING FOR HEAD 

 NO OUTPUT CONTROL FOR STRESS PERIOD    2   TIME STEP 4157
 
 SOLVING FOR HEAD 

 NO OUTPUT CONTROL FOR STRESS PERIOD    2   TIME STEP 4158
 
 SOLVING FOR HEAD 

 NO OUTPUT CONTROL FOR STRESS PERIOD    2   TIME STEP 4159
 
 SOLVING FOR HEAD 

 NO OUTPUT CONTROL FOR STRESS PERIOD    2   TIME STEP 4160
 
 SOLVING FOR HEAD 

 NO OUTPUT CONTROL FOR STRESS PERIOD    2   TIME STEP 4161
 
 SOLVING FOR HEAD 

 NO OUTPUT CONTROL FOR STRESS PERIOD    2   TIME STEP 4162
 
 SOLVING FOR HEAD 

 NO OUTPUT CONTROL FOR STRESS PERIOD    2   TIME STEP 4163
 
 SOLVING FOR HEAD 

 NO OUTPUT CONTROL FOR STRESS PERIOD    2   TIME STEP 4164
 
 SOLVING FOR HEAD 

 NO OUTPUT CONTROL FOR STRESS PERIOD    2   TIME STEP 4165
 
 SOLVING FOR HEAD 

 NO OUTPUT CONTROL FOR STRESS PERIOD    2   TIME STEP 4166
 
 SOLVING FOR HEAD 

 NO OUTPUT CONTROL FOR STRESS PERIOD    2   TIME STEP 4167
 
 SOLVING FOR HEAD 

 NO OUTPUT CONTROL FOR STRESS PERIOD    2   TIME STEP 4168
 
 SOLVING FOR HEAD 

 NO OUTPUT CONTROL FOR STRESS PERIOD    2   TIME STEP 4169
 
 SOLVING FOR HEAD 

 NO OUTPUT CONTROL FOR STRESS PERIOD    2   TIME STEP 4170
 
 SOLVING FOR HEAD 

 NO OUTPUT CONTROL FOR STRESS PERIOD    2   TIME STEP 4171
 
 SOLVING FOR HEAD 

 NO OUTPUT CONTROL FOR STRESS PERIOD    2   TIME STEP 4172
 
 SOLVING FOR HEAD 

 NO OUTPUT CONTROL FOR STRESS PERIOD    2   TIME STEP 4173
 
 SOLVING FOR HEAD 

 NO OUTPUT CONTROL FOR STRESS PERIOD    2   TIME STEP 4174
 
 SOLVING FOR HEAD 

 NO OUTPUT CONTROL FOR STRESS PERIOD    2   TIME STEP 4175
 
 SOLVING FOR HEAD 

 NO OUTPUT CONTROL FOR STRESS PERIOD    2   TIME STEP 4176
 
 SOLVING FOR HEAD 

 NO OUTPUT CONTROL FOR STRESS PERIOD    2   TIME STEP 4177
 
 SOLVING FOR HEAD 

 NO OUTPUT CONTROL FOR STRESS PERIOD    2   TIME STEP 4178
 
 SOLVING FOR HEAD 

 NO OUTPUT CONTROL FOR STRESS PERIOD    2   TIME STEP 4179
 
 SOLVING FOR HEAD 

 NO OUTPUT CONTROL FOR STRESS PERIOD    2   TIME STEP 4180
 
 SOLVING FOR HEAD 

 NO OUTPUT CONTROL FOR STRESS PERIOD    2   TIME STEP 4181
 
 SOLVING FOR HEAD 

 NO OUTPUT CONTROL FOR STRESS PERIOD    2   TIME STEP 4182
 
 SOLVING FOR HEAD 

 NO OUTPUT CONTROL FOR STRESS PERIOD    2   TIME STEP 4183
 
 SOLVING FOR HEAD 

 NO OUTPUT CONTROL FOR STRESS PERIOD    2   TIME STEP 4184
 
 SOLVING FOR HEAD 

 NO OUTPUT CONTROL FOR STRESS PERIOD    2   TIME STEP 4185
 
 SOLVING FOR HEAD 

 NO OUTPUT CONTROL FOR STRESS PERIOD    2   TIME STEP 4186
 
 SOLVING FOR HEAD 

 NO OUTPUT CONTROL FOR STRESS PERIOD    2   TIME STEP 4187
 
 SOLVING FOR HEAD 

 NO OUTPUT CONTROL FOR STRESS PERIOD    2   TIME STEP 4188
 
 SOLVING FOR HEAD 

 NO OUTPUT CONTROL FOR STRESS PERIOD    2   TIME STEP 4189
 
 SOLVING FOR HEAD 

 NO OUTPUT CONTROL FOR STRESS PERIOD    2   TIME STEP 4190
 
 SOLVING FOR HEAD 

 NO OUTPUT CONTROL FOR STRESS PERIOD    2   TIME STEP 4191
 
 SOLVING FOR HEAD 

 NO OUTPUT CONTROL FOR STRESS PERIOD    2   TIME STEP 4192
 
 SOLVING FOR HEAD 

 NO OUTPUT CONTROL FOR STRESS PERIOD    2   TIME STEP 4193
 
 SOLVING FOR HEAD 

 NO OUTPUT CONTROL FOR STRESS PERIOD    2   TIME STEP 4194
 
 SOLVING FOR HEAD 

 NO OUTPUT CONTROL FOR STRESS PERIOD    2   TIME STEP 4195
 
 SOLVING FOR HEAD 

 NO OUTPUT CONTROL FOR STRESS PERIOD    2   TIME STEP 4196
 
 SOLVING FOR HEAD 

 NO OUTPUT CONTROL FOR STRESS PERIOD    2   TIME STEP 4197
 
 SOLVING FOR HEAD 

 NO OUTPUT CONTROL FOR STRESS PERIOD    2   TIME STEP 4198
 
 SOLVING FOR HEAD 

 NO OUTPUT CONTROL FOR STRESS PERIOD    2   TIME STEP 4199
 
 SOLVING FOR HEAD 

 NO OUTPUT CONTROL FOR STRESS PERIOD    2   TIME STEP 4200
 
 SOLVING FOR HEAD 

 NO OUTPUT CONTROL FOR STRESS PERIOD    2   TIME STEP 4201
 
 SOLVING FOR HEAD 

 NO OUTPUT CONTROL FOR STRESS PERIOD    2   TIME STEP 4202
 
 SOLVING FOR HEAD 

 NO OUTPUT CONTROL FOR STRESS PERIOD    2   TIME STEP 4203
 
 SOLVING FOR HEAD 

 NO OUTPUT CONTROL FOR STRESS PERIOD    2   TIME STEP 4204
 
 SOLVING FOR HEAD 

 NO OUTPUT CONTROL FOR STRESS PERIOD    2   TIME STEP 4205
 
 SOLVING FOR HEAD 

 NO OUTPUT CONTROL FOR STRESS PERIOD    2   TIME STEP 4206
 
 SOLVING FOR HEAD 

 NO OUTPUT CONTROL FOR STRESS PERIOD    2   TIME STEP 4207
 
 SOLVING FOR HEAD 

 NO OUTPUT CONTROL FOR STRESS PERIOD    2   TIME STEP 4208
 
 SOLVING FOR HEAD 

 NO OUTPUT CONTROL FOR STRESS PERIOD    2   TIME STEP 4209
 
 SOLVING FOR HEAD 

 NO OUTPUT CONTROL FOR STRESS PERIOD    2   TIME STEP 4210
 
 SOLVING FOR HEAD 

 NO OUTPUT CONTROL FOR STRESS PERIOD    2   TIME STEP 4211
 
 SOLVING FOR HEAD 

 NO OUTPUT CONTROL FOR STRESS PERIOD    2   TIME STEP 4212
 
 SOLVING FOR HEAD 

 NO OUTPUT CONTROL FOR STRESS PERIOD    2   TIME STEP 4213
 
 SOLVING FOR HEAD 

 NO OUTPUT CONTROL FOR STRESS PERIOD    2   TIME STEP 4214
 
 SOLVING FOR HEAD 

 NO OUTPUT CONTROL FOR STRESS PERIOD    2   TIME STEP 4215
 
 SOLVING FOR HEAD 

 NO OUTPUT CONTROL FOR STRESS PERIOD    2   TIME STEP 4216
 
 SOLVING FOR HEAD 

 NO OUTPUT CONTROL FOR STRESS PERIOD    2   TIME STEP 4217
 
 SOLVING FOR HEAD 

 NO OUTPUT CONTROL FOR STRESS PERIOD    2   TIME STEP 4218
 
 SOLVING FOR HEAD 

 NO OUTPUT CONTROL FOR STRESS PERIOD    2   TIME STEP 4219
 
 SOLVING FOR HEAD 

 NO OUTPUT CONTROL FOR STRESS PERIOD    2   TIME STEP 4220
 
 SOLVING FOR HEAD 

 NO OUTPUT CONTROL FOR STRESS PERIOD    2   TIME STEP 4221
 
 SOLVING FOR HEAD 

 NO OUTPUT CONTROL FOR STRESS PERIOD    2   TIME STEP 4222
 
 SOLVING FOR HEAD 

 NO OUTPUT CONTROL FOR STRESS PERIOD    2   TIME STEP 4223
 
 SOLVING FOR HEAD 

 NO OUTPUT CONTROL FOR STRESS PERIOD    2   TIME STEP 4224
 
 SOLVING FOR HEAD 

 NO OUTPUT CONTROL FOR STRESS PERIOD    2   TIME STEP 4225
 
 SOLVING FOR HEAD 

 NO OUTPUT CONTROL FOR STRESS PERIOD    2   TIME STEP 4226
 
 SOLVING FOR HEAD 

 NO OUTPUT CONTROL FOR STRESS PERIOD    2   TIME STEP 4227
 
 SOLVING FOR HEAD 

 NO OUTPUT CONTROL FOR STRESS PERIOD    2   TIME STEP 4228
 
 SOLVING FOR HEAD 

 NO OUTPUT CONTROL FOR STRESS PERIOD    2   TIME STEP 4229
 
 SOLVING FOR HEAD 

 NO OUTPUT CONTROL FOR STRESS PERIOD    2   TIME STEP 4230
 
 SOLVING FOR HEAD 

 NO OUTPUT CONTROL FOR STRESS PERIOD    2   TIME STEP 4231
 
 SOLVING FOR HEAD 

 NO OUTPUT CONTROL FOR STRESS PERIOD    2   TIME STEP 4232
 
 SOLVING FOR HEAD 

 NO OUTPUT CONTROL FOR STRESS PERIOD    2   TIME STEP 4233
 
 SOLVING FOR HEAD 

 NO OUTPUT CONTROL FOR STRESS PERIOD    2   TIME STEP 4234
 
 SOLVING FOR HEAD 

 NO OUTPUT CONTROL FOR STRESS PERIOD    2   TIME STEP 4235
 
 SOLVING FOR HEAD 

 NO OUTPUT CONTROL FOR STRESS PERIOD    2   TIME STEP 4236
 
 SOLVING FOR HEAD 

 NO OUTPUT CONTROL FOR STRESS PERIOD    2   TIME STEP 4237
 
 SOLVING FOR HEAD 

 NO OUTPUT CONTROL FOR STRESS PERIOD    2   TIME STEP 4238
 
 SOLVING FOR HEAD 

 NO OUTPUT CONTROL FOR STRESS PERIOD    2   TIME STEP 4239
 
 SOLVING FOR HEAD 

 NO OUTPUT CONTROL FOR STRESS PERIOD    2   TIME STEP 4240
 
 SOLVING FOR HEAD 

 NO OUTPUT CONTROL FOR STRESS PERIOD    2   TIME STEP 4241
 
 SOLVING FOR HEAD 

 NO OUTPUT CONTROL FOR STRESS PERIOD    2   TIME STEP 4242
 
 SOLVING FOR HEAD 

 NO OUTPUT CONTROL FOR STRESS PERIOD    2   TIME STEP 4243
 
 SOLVING FOR HEAD 

 NO OUTPUT CONTROL FOR STRESS PERIOD    2   TIME STEP 4244
 
 SOLVING FOR HEAD 

 NO OUTPUT CONTROL FOR STRESS PERIOD    2   TIME STEP 4245
 
 SOLVING FOR HEAD 

 NO OUTPUT CONTROL FOR STRESS PERIOD    2   TIME STEP 4246
 
 SOLVING FOR HEAD 

 NO OUTPUT CONTROL FOR STRESS PERIOD    2   TIME STEP 4247
 
 SOLVING FOR HEAD 

 NO OUTPUT CONTROL FOR STRESS PERIOD    2   TIME STEP 4248
 
 SOLVING FOR HEAD 

 NO OUTPUT CONTROL FOR STRESS PERIOD    2   TIME STEP 4249
 
 SOLVING FOR HEAD 

 NO OUTPUT CONTROL FOR STRESS PERIOD    2   TIME STEP 4250
 
 SOLVING FOR HEAD 

 NO OUTPUT CONTROL FOR STRESS PERIOD    2   TIME STEP 4251
 
 SOLVING FOR HEAD 

 NO OUTPUT CONTROL FOR STRESS PERIOD    2   TIME STEP 4252
 
 SOLVING FOR HEAD 

 NO OUTPUT CONTROL FOR STRESS PERIOD    2   TIME STEP 4253
 
 SOLVING FOR HEAD 

 NO OUTPUT CONTROL FOR STRESS PERIOD    2   TIME STEP 4254
 
 SOLVING FOR HEAD 

 NO OUTPUT CONTROL FOR STRESS PERIOD    2   TIME STEP 4255
 
 SOLVING FOR HEAD 

 NO OUTPUT CONTROL FOR STRESS PERIOD    2   TIME STEP 4256
 
 SOLVING FOR HEAD 

 NO OUTPUT CONTROL FOR STRESS PERIOD    2   TIME STEP 4257
 
 SOLVING FOR HEAD 

 NO OUTPUT CONTROL FOR STRESS PERIOD    2   TIME STEP 4258
 
 SOLVING FOR HEAD 

 NO OUTPUT CONTROL FOR STRESS PERIOD    2   TIME STEP 4259
 
 SOLVING FOR HEAD 

 NO OUTPUT CONTROL FOR STRESS PERIOD    2   TIME STEP 4260
 
 SOLVING FOR HEAD 

 NO OUTPUT CONTROL FOR STRESS PERIOD    2   TIME STEP 4261
 
 SOLVING FOR HEAD 

 NO OUTPUT CONTROL FOR STRESS PERIOD    2   TIME STEP 4262
 
 SOLVING FOR HEAD 

 NO OUTPUT CONTROL FOR STRESS PERIOD    2   TIME STEP 4263
 
 SOLVING FOR HEAD 

 NO OUTPUT CONTROL FOR STRESS PERIOD    2   TIME STEP 4264
 
 SOLVING FOR HEAD 

 NO OUTPUT CONTROL FOR STRESS PERIOD    2   TIME STEP 4265
 
 SOLVING FOR HEAD 

 NO OUTPUT CONTROL FOR STRESS PERIOD    2   TIME STEP 4266
 
 SOLVING FOR HEAD 

 NO OUTPUT CONTROL FOR STRESS PERIOD    2   TIME STEP 4267
 
 SOLVING FOR HEAD 

 NO OUTPUT CONTROL FOR STRESS PERIOD    2   TIME STEP 4268
 
 SOLVING FOR HEAD 

 NO OUTPUT CONTROL FOR STRESS PERIOD    2   TIME STEP 4269
 
 SOLVING FOR HEAD 

 NO OUTPUT CONTROL FOR STRESS PERIOD    2   TIME STEP 4270
 
 SOLVING FOR HEAD 

 NO OUTPUT CONTROL FOR STRESS PERIOD    2   TIME STEP 4271
 
 SOLVING FOR HEAD 

 NO OUTPUT CONTROL FOR STRESS PERIOD    2   TIME STEP 4272
 
 SOLVING FOR HEAD 

 NO OUTPUT CONTROL FOR STRESS PERIOD    2   TIME STEP 4273
 
 SOLVING FOR HEAD 

 NO OUTPUT CONTROL FOR STRESS PERIOD    2   TIME STEP 4274
 
 SOLVING FOR HEAD 

 NO OUTPUT CONTROL FOR STRESS PERIOD    2   TIME STEP 4275
 
 SOLVING FOR HEAD 

 NO OUTPUT CONTROL FOR STRESS PERIOD    2   TIME STEP 4276
 
 SOLVING FOR HEAD 

 NO OUTPUT CONTROL FOR STRESS PERIOD    2   TIME STEP 4277
 
 SOLVING FOR HEAD 

 NO OUTPUT CONTROL FOR STRESS PERIOD    2   TIME STEP 4278
 
 SOLVING FOR HEAD 

 NO OUTPUT CONTROL FOR STRESS PERIOD    2   TIME STEP 4279
 
 SOLVING FOR HEAD 

 NO OUTPUT CONTROL FOR STRESS PERIOD    2   TIME STEP 4280
 
 SOLVING FOR HEAD 

 NO OUTPUT CONTROL FOR STRESS PERIOD    2   TIME STEP 4281
 
 SOLVING FOR HEAD 

 NO OUTPUT CONTROL FOR STRESS PERIOD    2   TIME STEP 4282
 
 SOLVING FOR HEAD 

 NO OUTPUT CONTROL FOR STRESS PERIOD    2   TIME STEP 4283
 
 SOLVING FOR HEAD 

 NO OUTPUT CONTROL FOR STRESS PERIOD    2   TIME STEP 4284
 
 SOLVING FOR HEAD 

 NO OUTPUT CONTROL FOR STRESS PERIOD    2   TIME STEP 4285
 
 SOLVING FOR HEAD 

 NO OUTPUT CONTROL FOR STRESS PERIOD    2   TIME STEP 4286
 
 SOLVING FOR HEAD 

 NO OUTPUT CONTROL FOR STRESS PERIOD    2   TIME STEP 4287
 
 SOLVING FOR HEAD 

 NO OUTPUT CONTROL FOR STRESS PERIOD    2   TIME STEP 4288
 
 SOLVING FOR HEAD 

 NO OUTPUT CONTROL FOR STRESS PERIOD    2   TIME STEP 4289
 
 SOLVING FOR HEAD 

 NO OUTPUT CONTROL FOR STRESS PERIOD    2   TIME STEP 4290
 
 SOLVING FOR HEAD 

 NO OUTPUT CONTROL FOR STRESS PERIOD    2   TIME STEP 4291
 
 SOLVING FOR HEAD 

 NO OUTPUT CONTROL FOR STRESS PERIOD    2   TIME STEP 4292
 
 SOLVING FOR HEAD 

 NO OUTPUT CONTROL FOR STRESS PERIOD    2   TIME STEP 4293
 
 SOLVING FOR HEAD 

 NO OUTPUT CONTROL FOR STRESS PERIOD    2   TIME STEP 4294
 
 SOLVING FOR HEAD 

 NO OUTPUT CONTROL FOR STRESS PERIOD    2   TIME STEP 4295
 
 SOLVING FOR HEAD 

 NO OUTPUT CONTROL FOR STRESS PERIOD    2   TIME STEP 4296
 
 SOLVING FOR HEAD 

 NO OUTPUT CONTROL FOR STRESS PERIOD    2   TIME STEP 4297
 
 SOLVING FOR HEAD 

 NO OUTPUT CONTROL FOR STRESS PERIOD    2   TIME STEP 4298
 
 SOLVING FOR HEAD 

 NO OUTPUT CONTROL FOR STRESS PERIOD    2   TIME STEP 4299
 
 SOLVING FOR HEAD 

 NO OUTPUT CONTROL FOR STRESS PERIOD    2   TIME STEP 4300
 
 SOLVING FOR HEAD 

 NO OUTPUT CONTROL FOR STRESS PERIOD    2   TIME STEP 4301
 
 SOLVING FOR HEAD 

 NO OUTPUT CONTROL FOR STRESS PERIOD    2   TIME STEP 4302
 
 SOLVING FOR HEAD 

 NO OUTPUT CONTROL FOR STRESS PERIOD    2   TIME STEP 4303
 
 SOLVING FOR HEAD 

 NO OUTPUT CONTROL FOR STRESS PERIOD    2   TIME STEP 4304
 
 SOLVING FOR HEAD 

 NO OUTPUT CONTROL FOR STRESS PERIOD    2   TIME STEP 4305
 
 SOLVING FOR HEAD 

 NO OUTPUT CONTROL FOR STRESS PERIOD    2   TIME STEP 4306
 
 SOLVING FOR HEAD 

 NO OUTPUT CONTROL FOR STRESS PERIOD    2   TIME STEP 4307
 
 SOLVING FOR HEAD 

 NO OUTPUT CONTROL FOR STRESS PERIOD    2   TIME STEP 4308
 
 SOLVING FOR HEAD 

 NO OUTPUT CONTROL FOR STRESS PERIOD    2   TIME STEP 4309
 
 SOLVING FOR HEAD 

 NO OUTPUT CONTROL FOR STRESS PERIOD    2   TIME STEP 4310
 
 SOLVING FOR HEAD 

 NO OUTPUT CONTROL FOR STRESS PERIOD    2   TIME STEP 4311
 
 SOLVING FOR HEAD 

 NO OUTPUT CONTROL FOR STRESS PERIOD    2   TIME STEP 4312
 
 SOLVING FOR HEAD 

 NO OUTPUT CONTROL FOR STRESS PERIOD    2   TIME STEP 4313
 
 SOLVING FOR HEAD 

 NO OUTPUT CONTROL FOR STRESS PERIOD    2   TIME STEP 4314
 
 SOLVING FOR HEAD 

 NO OUTPUT CONTROL FOR STRESS PERIOD    2   TIME STEP 4315
 
 SOLVING FOR HEAD 

 NO OUTPUT CONTROL FOR STRESS PERIOD    2   TIME STEP 4316
 
 SOLVING FOR HEAD 

 NO OUTPUT CONTROL FOR STRESS PERIOD    2   TIME STEP 4317
 
 SOLVING FOR HEAD 

 NO OUTPUT CONTROL FOR STRESS PERIOD    2   TIME STEP 4318
 
 SOLVING FOR HEAD 

 NO OUTPUT CONTROL FOR STRESS PERIOD    2   TIME STEP 4319
 
 SOLVING FOR HEAD 

 NO OUTPUT CONTROL FOR STRESS PERIOD    2   TIME STEP 4320
 
 SOLVING FOR HEAD 

 NO OUTPUT CONTROL FOR STRESS PERIOD    2   TIME STEP 4321
 
 SOLVING FOR HEAD 

 NO OUTPUT CONTROL FOR STRESS PERIOD    2   TIME STEP 4322
 
 SOLVING FOR HEAD 

 NO OUTPUT CONTROL FOR STRESS PERIOD    2   TIME STEP 4323
 
 SOLVING FOR HEAD 

 NO OUTPUT CONTROL FOR STRESS PERIOD    2   TIME STEP 4324
 
 SOLVING FOR HEAD 

 NO OUTPUT CONTROL FOR STRESS PERIOD    2   TIME STEP 4325
 
 SOLVING FOR HEAD 

 NO OUTPUT CONTROL FOR STRESS PERIOD    2   TIME STEP 4326
 
 SOLVING FOR HEAD 

 NO OUTPUT CONTROL FOR STRESS PERIOD    2   TIME STEP 4327
 
 SOLVING FOR HEAD 

 NO OUTPUT CONTROL FOR STRESS PERIOD    2   TIME STEP 4328
 
 SOLVING FOR HEAD 

 NO OUTPUT CONTROL FOR STRESS PERIOD    2   TIME STEP 4329
 
 SOLVING FOR HEAD 

 NO OUTPUT CONTROL FOR STRESS PERIOD    2   TIME STEP 4330
 
 SOLVING FOR HEAD 

 NO OUTPUT CONTROL FOR STRESS PERIOD    2   TIME STEP 4331
 
 SOLVING FOR HEAD 

 NO OUTPUT CONTROL FOR STRESS PERIOD    2   TIME STEP 4332
 
 SOLVING FOR HEAD 

 NO OUTPUT CONTROL FOR STRESS PERIOD    2   TIME STEP 4333
 
 SOLVING FOR HEAD 

 NO OUTPUT CONTROL FOR STRESS PERIOD    2   TIME STEP 4334
 
 SOLVING FOR HEAD 

 NO OUTPUT CONTROL FOR STRESS PERIOD    2   TIME STEP 4335
 
 SOLVING FOR HEAD 

 NO OUTPUT CONTROL FOR STRESS PERIOD    2   TIME STEP 4336
 
 SOLVING FOR HEAD 

 NO OUTPUT CONTROL FOR STRESS PERIOD    2   TIME STEP 4337
 
 SOLVING FOR HEAD 

 NO OUTPUT CONTROL FOR STRESS PERIOD    2   TIME STEP 4338
 
 SOLVING FOR HEAD 

 NO OUTPUT CONTROL FOR STRESS PERIOD    2   TIME STEP 4339
 
 SOLVING FOR HEAD 

 NO OUTPUT CONTROL FOR STRESS PERIOD    2   TIME STEP 4340
 
 SOLVING FOR HEAD 

 NO OUTPUT CONTROL FOR STRESS PERIOD    2   TIME STEP 4341
 
 SOLVING FOR HEAD 

 NO OUTPUT CONTROL FOR STRESS PERIOD    2   TIME STEP 4342
 
 SOLVING FOR HEAD 

 NO OUTPUT CONTROL FOR STRESS PERIOD    2   TIME STEP 4343
 
 SOLVING FOR HEAD 

 NO OUTPUT CONTROL FOR STRESS PERIOD    2   TIME STEP 4344
 
 SOLVING FOR HEAD 

 NO OUTPUT CONTROL FOR STRESS PERIOD    2   TIME STEP 4345
 
 SOLVING FOR HEAD 

 NO OUTPUT CONTROL FOR STRESS PERIOD    2   TIME STEP 4346
 
 SOLVING FOR HEAD 

 NO OUTPUT CONTROL FOR STRESS PERIOD    2   TIME STEP 4347
 
 SOLVING FOR HEAD 

 NO OUTPUT CONTROL FOR STRESS PERIOD    2   TIME STEP 4348
 
 SOLVING FOR HEAD 

 NO OUTPUT CONTROL FOR STRESS PERIOD    2   TIME STEP 4349
 
 SOLVING FOR HEAD 

 NO OUTPUT CONTROL FOR STRESS PERIOD    2   TIME STEP 4350
 
 SOLVING FOR HEAD 

 NO OUTPUT CONTROL FOR STRESS PERIOD    2   TIME STEP 4351
 
 SOLVING FOR HEAD 

 NO OUTPUT CONTROL FOR STRESS PERIOD    2   TIME STEP 4352
 
 SOLVING FOR HEAD 

 NO OUTPUT CONTROL FOR STRESS PERIOD    2   TIME STEP 4353
 
 SOLVING FOR HEAD 

 NO OUTPUT CONTROL FOR STRESS PERIOD    2   TIME STEP 4354
 
 SOLVING FOR HEAD 

 NO OUTPUT CONTROL FOR STRESS PERIOD    2   TIME STEP 4355
 
 SOLVING FOR HEAD 

 NO OUTPUT CONTROL FOR STRESS PERIOD    2   TIME STEP 4356
 
 SOLVING FOR HEAD 

 NO OUTPUT CONTROL FOR STRESS PERIOD    2   TIME STEP 4357
 
 SOLVING FOR HEAD 

 NO OUTPUT CONTROL FOR STRESS PERIOD    2   TIME STEP 4358
 
 SOLVING FOR HEAD 

 NO OUTPUT CONTROL FOR STRESS PERIOD    2   TIME STEP 4359
 
 SOLVING FOR HEAD 

 NO OUTPUT CONTROL FOR STRESS PERIOD    2   TIME STEP 4360
 
 SOLVING FOR HEAD 

 NO OUTPUT CONTROL FOR STRESS PERIOD    2   TIME STEP 4361
 
 SOLVING FOR HEAD 

 NO OUTPUT CONTROL FOR STRESS PERIOD    2   TIME STEP 4362
 
 SOLVING FOR HEAD 

 NO OUTPUT CONTROL FOR STRESS PERIOD    2   TIME STEP 4363
 
 SOLVING FOR HEAD 

 NO OUTPUT CONTROL FOR STRESS PERIOD    2   TIME STEP 4364
 
 SOLVING FOR HEAD 

 NO OUTPUT CONTROL FOR STRESS PERIOD    2   TIME STEP 4365
 
 SOLVING FOR HEAD 

 NO OUTPUT CONTROL FOR STRESS PERIOD    2   TIME STEP 4366
 
 SOLVING FOR HEAD 

 NO OUTPUT CONTROL FOR STRESS PERIOD    2   TIME STEP 4367
 
 SOLVING FOR HEAD 

 NO OUTPUT CONTROL FOR STRESS PERIOD    2   TIME STEP 4368
 
 SOLVING FOR HEAD 

 NO OUTPUT CONTROL FOR STRESS PERIOD    2   TIME STEP 4369
 
 SOLVING FOR HEAD 

 NO OUTPUT CONTROL FOR STRESS PERIOD    2   TIME STEP 4370
 
 SOLVING FOR HEAD 

 NO OUTPUT CONTROL FOR STRESS PERIOD    2   TIME STEP 4371
 
 SOLVING FOR HEAD 

 NO OUTPUT CONTROL FOR STRESS PERIOD    2   TIME STEP 4372
 
 SOLVING FOR HEAD 

 NO OUTPUT CONTROL FOR STRESS PERIOD    2   TIME STEP 4373
 
 SOLVING FOR HEAD 

 NO OUTPUT CONTROL FOR STRESS PERIOD    2   TIME STEP 4374
 
 SOLVING FOR HEAD 

 NO OUTPUT CONTROL FOR STRESS PERIOD    2   TIME STEP 4375
 
 SOLVING FOR HEAD 

 NO OUTPUT CONTROL FOR STRESS PERIOD    2   TIME STEP 4376
 
 SOLVING FOR HEAD 

 NO OUTPUT CONTROL FOR STRESS PERIOD    2   TIME STEP 4377
 
 SOLVING FOR HEAD 

 NO OUTPUT CONTROL FOR STRESS PERIOD    2   TIME STEP 4378
 
 SOLVING FOR HEAD 

 NO OUTPUT CONTROL FOR STRESS PERIOD    2   TIME STEP 4379
 
 SOLVING FOR HEAD 

 NO OUTPUT CONTROL FOR STRESS PERIOD    2   TIME STEP 4380
 
 SOLVING FOR HEAD 

 NO OUTPUT CONTROL FOR STRESS PERIOD    2   TIME STEP 4381
 
 SOLVING FOR HEAD 

 NO OUTPUT CONTROL FOR STRESS PERIOD    2   TIME STEP 4382
 
 SOLVING FOR HEAD 

 NO OUTPUT CONTROL FOR STRESS PERIOD    2   TIME STEP 4383
 
 SOLVING FOR HEAD 

 NO OUTPUT CONTROL FOR STRESS PERIOD    2   TIME STEP 4384
 
 SOLVING FOR HEAD 

 NO OUTPUT CONTROL FOR STRESS PERIOD    2   TIME STEP 4385
 
 SOLVING FOR HEAD 

 NO OUTPUT CONTROL FOR STRESS PERIOD    2   TIME STEP 4386
 
 SOLVING FOR HEAD 

 NO OUTPUT CONTROL FOR STRESS PERIOD    2   TIME STEP 4387
 
 SOLVING FOR HEAD 

 NO OUTPUT CONTROL FOR STRESS PERIOD    2   TIME STEP 4388
 
 SOLVING FOR HEAD 

 NO OUTPUT CONTROL FOR STRESS PERIOD    2   TIME STEP 4389
 
 SOLVING FOR HEAD 

 NO OUTPUT CONTROL FOR STRESS PERIOD    2   TIME STEP 4390
 
 SOLVING FOR HEAD 

 NO OUTPUT CONTROL FOR STRESS PERIOD    2   TIME STEP 4391
 
 SOLVING FOR HEAD 

 NO OUTPUT CONTROL FOR STRESS PERIOD    2   TIME STEP 4392
 
 SOLVING FOR HEAD 

 NO OUTPUT CONTROL FOR STRESS PERIOD    2   TIME STEP 4393
 
 SOLVING FOR HEAD 

 NO OUTPUT CONTROL FOR STRESS PERIOD    2   TIME STEP 4394
 
 SOLVING FOR HEAD 

 NO OUTPUT CONTROL FOR STRESS PERIOD    2   TIME STEP 4395
 
 SOLVING FOR HEAD 

 NO OUTPUT CONTROL FOR STRESS PERIOD    2   TIME STEP 4396
 
 SOLVING FOR HEAD 

 NO OUTPUT CONTROL FOR STRESS PERIOD    2   TIME STEP 4397
 
 SOLVING FOR HEAD 

 NO OUTPUT CONTROL FOR STRESS PERIOD    2   TIME STEP 4398
 
 SOLVING FOR HEAD 

 NO OUTPUT CONTROL FOR STRESS PERIOD    2   TIME STEP 4399
 
 SOLVING FOR HEAD 

 NO OUTPUT CONTROL FOR STRESS PERIOD    2   TIME STEP 4400
 
 SOLVING FOR HEAD 

 NO OUTPUT CONTROL FOR STRESS PERIOD    2   TIME STEP 4401
 
 SOLVING FOR HEAD 

 NO OUTPUT CONTROL FOR STRESS PERIOD    2   TIME STEP 4402
 
 SOLVING FOR HEAD 

 NO OUTPUT CONTROL FOR STRESS PERIOD    2   TIME STEP 4403
 
 SOLVING FOR HEAD 

 NO OUTPUT CONTROL FOR STRESS PERIOD    2   TIME STEP 4404
 
 SOLVING FOR HEAD 

 NO OUTPUT CONTROL FOR STRESS PERIOD    2   TIME STEP 4405
 
 SOLVING FOR HEAD 

 NO OUTPUT CONTROL FOR STRESS PERIOD    2   TIME STEP 4406
 
 SOLVING FOR HEAD 

 NO OUTPUT CONTROL FOR STRESS PERIOD    2   TIME STEP 4407
 
 SOLVING FOR HEAD 

 NO OUTPUT CONTROL FOR STRESS PERIOD    2   TIME STEP 4408
 
 SOLVING FOR HEAD 

 NO OUTPUT CONTROL FOR STRESS PERIOD    2   TIME STEP 4409
 
 SOLVING FOR HEAD 

 NO OUTPUT CONTROL FOR STRESS PERIOD    2   TIME STEP 4410
 
 SOLVING FOR HEAD 

 NO OUTPUT CONTROL FOR STRESS PERIOD    2   TIME STEP 4411
 
 SOLVING FOR HEAD 

 NO OUTPUT CONTROL FOR STRESS PERIOD    2   TIME STEP 4412
 
 SOLVING FOR HEAD 

 NO OUTPUT CONTROL FOR STRESS PERIOD    2   TIME STEP 4413
 
 SOLVING FOR HEAD 

 NO OUTPUT CONTROL FOR STRESS PERIOD    2   TIME STEP 4414
 
 SOLVING FOR HEAD 

 NO OUTPUT CONTROL FOR STRESS PERIOD    2   TIME STEP 4415
 
 SOLVING FOR HEAD 

 NO OUTPUT CONTROL FOR STRESS PERIOD    2   TIME STEP 4416
 
 SOLVING FOR HEAD 

 NO OUTPUT CONTROL FOR STRESS PERIOD    2   TIME STEP 4417
 
 SOLVING FOR HEAD 

 NO OUTPUT CONTROL FOR STRESS PERIOD    2   TIME STEP 4418
 
 SOLVING FOR HEAD 

 NO OUTPUT CONTROL FOR STRESS PERIOD    2   TIME STEP 4419
 
 SOLVING FOR HEAD 

 NO OUTPUT CONTROL FOR STRESS PERIOD    2   TIME STEP 4420
 
 SOLVING FOR HEAD 

 NO OUTPUT CONTROL FOR STRESS PERIOD    2   TIME STEP 4421
 
 SOLVING FOR HEAD 

 NO OUTPUT CONTROL FOR STRESS PERIOD    2   TIME STEP 4422
 
 SOLVING FOR HEAD 

 NO OUTPUT CONTROL FOR STRESS PERIOD    2   TIME STEP 4423
 
 SOLVING FOR HEAD 

 NO OUTPUT CONTROL FOR STRESS PERIOD    2   TIME STEP 4424
 
 SOLVING FOR HEAD 

 NO OUTPUT CONTROL FOR STRESS PERIOD    2   TIME STEP 4425
 
 SOLVING FOR HEAD 

 NO OUTPUT CONTROL FOR STRESS PERIOD    2   TIME STEP 4426
 
 SOLVING FOR HEAD 

 NO OUTPUT CONTROL FOR STRESS PERIOD    2   TIME STEP 4427
 
 SOLVING FOR HEAD 

 NO OUTPUT CONTROL FOR STRESS PERIOD    2   TIME STEP 4428
 
 SOLVING FOR HEAD 

 NO OUTPUT CONTROL FOR STRESS PERIOD    2   TIME STEP 4429
 
 SOLVING FOR HEAD 

 NO OUTPUT CONTROL FOR STRESS PERIOD    2   TIME STEP 4430
 
 SOLVING FOR HEAD 

 NO OUTPUT CONTROL FOR STRESS PERIOD    2   TIME STEP 4431
 
 SOLVING FOR HEAD 

 NO OUTPUT CONTROL FOR STRESS PERIOD    2   TIME STEP 4432
 
 SOLVING FOR HEAD 

 NO OUTPUT CONTROL FOR STRESS PERIOD    2   TIME STEP 4433
 
 SOLVING FOR HEAD 

 NO OUTPUT CONTROL FOR STRESS PERIOD    2   TIME STEP 4434
 
 SOLVING FOR HEAD 

 NO OUTPUT CONTROL FOR STRESS PERIOD    2   TIME STEP 4435
 
 SOLVING FOR HEAD 

 NO OUTPUT CONTROL FOR STRESS PERIOD    2   TIME STEP 4436
 
 SOLVING FOR HEAD 

 NO OUTPUT CONTROL FOR STRESS PERIOD    2   TIME STEP 4437
 
 SOLVING FOR HEAD 

 NO OUTPUT CONTROL FOR STRESS PERIOD    2   TIME STEP 4438
 
 SOLVING FOR HEAD 

 NO OUTPUT CONTROL FOR STRESS PERIOD    2   TIME STEP 4439
 
 SOLVING FOR HEAD 

 NO OUTPUT CONTROL FOR STRESS PERIOD    2   TIME STEP 4440
 
 SOLVING FOR HEAD 

 NO OUTPUT CONTROL FOR STRESS PERIOD    2   TIME STEP 4441
 
 SOLVING FOR HEAD 

 NO OUTPUT CONTROL FOR STRESS PERIOD    2   TIME STEP 4442
 
 SOLVING FOR HEAD 

 NO OUTPUT CONTROL FOR STRESS PERIOD    2   TIME STEP 4443
 
 SOLVING FOR HEAD 

 NO OUTPUT CONTROL FOR STRESS PERIOD    2   TIME STEP 4444
 
 SOLVING FOR HEAD 

 NO OUTPUT CONTROL FOR STRESS PERIOD    2   TIME STEP 4445
 
 SOLVING FOR HEAD 

 NO OUTPUT CONTROL FOR STRESS PERIOD    2   TIME STEP 4446
 
 SOLVING FOR HEAD 

 NO OUTPUT CONTROL FOR STRESS PERIOD    2   TIME STEP 4447
 
 SOLVING FOR HEAD 

 NO OUTPUT CONTROL FOR STRESS PERIOD    2   TIME STEP 4448
 
 SOLVING FOR HEAD 

 NO OUTPUT CONTROL FOR STRESS PERIOD    2   TIME STEP 4449
 
 SOLVING FOR HEAD 

 NO OUTPUT CONTROL FOR STRESS PERIOD    2   TIME STEP 4450
 
 SOLVING FOR HEAD 

 NO OUTPUT CONTROL FOR STRESS PERIOD    2   TIME STEP 4451
 
 SOLVING FOR HEAD 

 NO OUTPUT CONTROL FOR STRESS PERIOD    2   TIME STEP 4452
 
 SOLVING FOR HEAD 

 NO OUTPUT CONTROL FOR STRESS PERIOD    2   TIME STEP 4453
 
 SOLVING FOR HEAD 

 NO OUTPUT CONTROL FOR STRESS PERIOD    2   TIME STEP 4454
 
 SOLVING FOR HEAD 

 NO OUTPUT CONTROL FOR STRESS PERIOD    2   TIME STEP 4455
 
 SOLVING FOR HEAD 

 NO OUTPUT CONTROL FOR STRESS PERIOD    2   TIME STEP 4456
 
 SOLVING FOR HEAD 

 NO OUTPUT CONTROL FOR STRESS PERIOD    2   TIME STEP 4457
 
 SOLVING FOR HEAD 

 NO OUTPUT CONTROL FOR STRESS PERIOD    2   TIME STEP 4458
 
 SOLVING FOR HEAD 

 NO OUTPUT CONTROL FOR STRESS PERIOD    2   TIME STEP 4459
 
 SOLVING FOR HEAD 

 NO OUTPUT CONTROL FOR STRESS PERIOD    2   TIME STEP 4460
 
 SOLVING FOR HEAD 

 NO OUTPUT CONTROL FOR STRESS PERIOD    2   TIME STEP 4461
 
 SOLVING FOR HEAD 

 NO OUTPUT CONTROL FOR STRESS PERIOD    2   TIME STEP 4462
 
 SOLVING FOR HEAD 

 NO OUTPUT CONTROL FOR STRESS PERIOD    2   TIME STEP 4463
 
 SOLVING FOR HEAD 

 NO OUTPUT CONTROL FOR STRESS PERIOD    2   TIME STEP 4464
 
 SOLVING FOR HEAD 

 NO OUTPUT CONTROL FOR STRESS PERIOD    2   TIME STEP 4465
 
 SOLVING FOR HEAD 

 NO OUTPUT CONTROL FOR STRESS PERIOD    2   TIME STEP 4466
 
 SOLVING FOR HEAD 

 NO OUTPUT CONTROL FOR STRESS PERIOD    2   TIME STEP 4467
 
 SOLVING FOR HEAD 

 NO OUTPUT CONTROL FOR STRESS PERIOD    2   TIME STEP 4468
 
 SOLVING FOR HEAD 

 NO OUTPUT CONTROL FOR STRESS PERIOD    2   TIME STEP 4469
 
 SOLVING FOR HEAD 

 NO OUTPUT CONTROL FOR STRESS PERIOD    2   TIME STEP 4470
 
 SOLVING FOR HEAD 

 NO OUTPUT CONTROL FOR STRESS PERIOD    2   TIME STEP 4471
 
 SOLVING FOR HEAD 

 NO OUTPUT CONTROL FOR STRESS PERIOD    2   TIME STEP 4472
 
 SOLVING FOR HEAD 

 NO OUTPUT CONTROL FOR STRESS PERIOD    2   TIME STEP 4473
 
 SOLVING FOR HEAD 

 NO OUTPUT CONTROL FOR STRESS PERIOD    2   TIME STEP 4474
 
 SOLVING FOR HEAD 

 NO OUTPUT CONTROL FOR STRESS PERIOD    2   TIME STEP 4475
 
 SOLVING FOR HEAD 

 NO OUTPUT CONTROL FOR STRESS PERIOD    2   TIME STEP 4476
 
 SOLVING FOR HEAD 

 NO OUTPUT CONTROL FOR STRESS PERIOD    2   TIME STEP 4477
 
 SOLVING FOR HEAD 

 NO OUTPUT CONTROL FOR STRESS PERIOD    2   TIME STEP 4478
 
 SOLVING FOR HEAD 

 NO OUTPUT CONTROL FOR STRESS PERIOD    2   TIME STEP 4479
 
 SOLVING FOR HEAD 

 NO OUTPUT CONTROL FOR STRESS PERIOD    2   TIME STEP 4480
 
 SOLVING FOR HEAD 

 NO OUTPUT CONTROL FOR STRESS PERIOD    2   TIME STEP 4481
 
 SOLVING FOR HEAD 

 NO OUTPUT CONTROL FOR STRESS PERIOD    2   TIME STEP 4482
 
 SOLVING FOR HEAD 

 NO OUTPUT CONTROL FOR STRESS PERIOD    2   TIME STEP 4483
 
 SOLVING FOR HEAD 

 NO OUTPUT CONTROL FOR STRESS PERIOD    2   TIME STEP 4484
 
 SOLVING FOR HEAD 

 NO OUTPUT CONTROL FOR STRESS PERIOD    2   TIME STEP 4485
 
 SOLVING FOR HEAD 

 NO OUTPUT CONTROL FOR STRESS PERIOD    2   TIME STEP 4486
 
 SOLVING FOR HEAD 

 NO OUTPUT CONTROL FOR STRESS PERIOD    2   TIME STEP 4487
 
 SOLVING FOR HEAD 

 NO OUTPUT CONTROL FOR STRESS PERIOD    2   TIME STEP 4488
 
 SOLVING FOR HEAD 

 NO OUTPUT CONTROL FOR STRESS PERIOD    2   TIME STEP 4489
 
 SOLVING FOR HEAD 

 NO OUTPUT CONTROL FOR STRESS PERIOD    2   TIME STEP 4490
 
 SOLVING FOR HEAD 

 NO OUTPUT CONTROL FOR STRESS PERIOD    2   TIME STEP 4491
 
 SOLVING FOR HEAD 

 NO OUTPUT CONTROL FOR STRESS PERIOD    2   TIME STEP 4492
 
 SOLVING FOR HEAD 

 NO OUTPUT CONTROL FOR STRESS PERIOD    2   TIME STEP 4493
 
 SOLVING FOR HEAD 

 NO OUTPUT CONTROL FOR STRESS PERIOD    2   TIME STEP 4494
 
 SOLVING FOR HEAD 

 NO OUTPUT CONTROL FOR STRESS PERIOD    2   TIME STEP 4495
 
 SOLVING FOR HEAD 

 NO OUTPUT CONTROL FOR STRESS PERIOD    2   TIME STEP 4496
 
 SOLVING FOR HEAD 

 NO OUTPUT CONTROL FOR STRESS PERIOD    2   TIME STEP 4497
 
 SOLVING FOR HEAD 

 NO OUTPUT CONTROL FOR STRESS PERIOD    2   TIME STEP 4498
 
 SOLVING FOR HEAD 

 NO OUTPUT CONTROL FOR STRESS PERIOD    2   TIME STEP 4499
 
 SOLVING FOR HEAD 

 NO OUTPUT CONTROL FOR STRESS PERIOD    2   TIME STEP 4500
 
 SOLVING FOR HEAD 

 NO OUTPUT CONTROL FOR STRESS PERIOD    2   TIME STEP 4501
 
 SOLVING FOR HEAD 

 NO OUTPUT CONTROL FOR STRESS PERIOD    2   TIME STEP 4502
 
 SOLVING FOR HEAD 

 NO OUTPUT CONTROL FOR STRESS PERIOD    2   TIME STEP 4503
 
 SOLVING FOR HEAD 

 NO OUTPUT CONTROL FOR STRESS PERIOD    2   TIME STEP 4504
 
 SOLVING FOR HEAD 

 NO OUTPUT CONTROL FOR STRESS PERIOD    2   TIME STEP 4505
 
 SOLVING FOR HEAD 

 NO OUTPUT CONTROL FOR STRESS PERIOD    2   TIME STEP 4506
 
 SOLVING FOR HEAD 

 NO OUTPUT CONTROL FOR STRESS PERIOD    2   TIME STEP 4507
 
 SOLVING FOR HEAD 

 NO OUTPUT CONTROL FOR STRESS PERIOD    2   TIME STEP 4508
 
 SOLVING FOR HEAD 

 NO OUTPUT CONTROL FOR STRESS PERIOD    2   TIME STEP 4509
 
 SOLVING FOR HEAD 

 NO OUTPUT CONTROL FOR STRESS PERIOD    2   TIME STEP 4510
 
 SOLVING FOR HEAD 

 NO OUTPUT CONTROL FOR STRESS PERIOD    2   TIME STEP 4511
 
 SOLVING FOR HEAD 

 NO OUTPUT CONTROL FOR STRESS PERIOD    2   TIME STEP 4512
 
 SOLVING FOR HEAD 

 NO OUTPUT CONTROL FOR STRESS PERIOD    2   TIME STEP 4513
 
 SOLVING FOR HEAD 

 NO OUTPUT CONTROL FOR STRESS PERIOD    2   TIME STEP 4514
 
 SOLVING FOR HEAD 

 NO OUTPUT CONTROL FOR STRESS PERIOD    2   TIME STEP 4515
 
 SOLVING FOR HEAD 

 NO OUTPUT CONTROL FOR STRESS PERIOD    2   TIME STEP 4516
 
 SOLVING FOR HEAD 

 NO OUTPUT CONTROL FOR STRESS PERIOD    2   TIME STEP 4517
 
 SOLVING FOR HEAD 

 NO OUTPUT CONTROL FOR STRESS PERIOD    2   TIME STEP 4518
 
 SOLVING FOR HEAD 

 NO OUTPUT CONTROL FOR STRESS PERIOD    2   TIME STEP 4519
 
 SOLVING FOR HEAD 

 NO OUTPUT CONTROL FOR STRESS PERIOD    2   TIME STEP 4520
 
 SOLVING FOR HEAD 

 NO OUTPUT CONTROL FOR STRESS PERIOD    2   TIME STEP 4521
 
 SOLVING FOR HEAD 

 NO OUTPUT CONTROL FOR STRESS PERIOD    2   TIME STEP 4522
 
 SOLVING FOR HEAD 

 NO OUTPUT CONTROL FOR STRESS PERIOD    2   TIME STEP 4523
 
 SOLVING FOR HEAD 

 NO OUTPUT CONTROL FOR STRESS PERIOD    2   TIME STEP 4524
 
 SOLVING FOR HEAD 

 NO OUTPUT CONTROL FOR STRESS PERIOD    2   TIME STEP 4525
 
 SOLVING FOR HEAD 

 NO OUTPUT CONTROL FOR STRESS PERIOD    2   TIME STEP 4526
 
 SOLVING FOR HEAD 

 NO OUTPUT CONTROL FOR STRESS PERIOD    2   TIME STEP 4527
 
 SOLVING FOR HEAD 

 NO OUTPUT CONTROL FOR STRESS PERIOD    2   TIME STEP 4528
 
 SOLVING FOR HEAD 

 NO OUTPUT CONTROL FOR STRESS PERIOD    2   TIME STEP 4529
 
 SOLVING FOR HEAD 

 NO OUTPUT CONTROL FOR STRESS PERIOD    2   TIME STEP 4530
 
 SOLVING FOR HEAD 

 NO OUTPUT CONTROL FOR STRESS PERIOD    2   TIME STEP 4531
 
 SOLVING FOR HEAD 

 NO OUTPUT CONTROL FOR STRESS PERIOD    2   TIME STEP 4532
 
 SOLVING FOR HEAD 

 NO OUTPUT CONTROL FOR STRESS PERIOD    2   TIME STEP 4533
 
 SOLVING FOR HEAD 

 NO OUTPUT CONTROL FOR STRESS PERIOD    2   TIME STEP 4534
 
 SOLVING FOR HEAD 

 NO OUTPUT CONTROL FOR STRESS PERIOD    2   TIME STEP 4535
 
 SOLVING FOR HEAD 

 NO OUTPUT CONTROL FOR STRESS PERIOD    2   TIME STEP 4536
 
 SOLVING FOR HEAD 

 NO OUTPUT CONTROL FOR STRESS PERIOD    2   TIME STEP 4537
 
 SOLVING FOR HEAD 

 NO OUTPUT CONTROL FOR STRESS PERIOD    2   TIME STEP 4538
 
 SOLVING FOR HEAD 

 NO OUTPUT CONTROL FOR STRESS PERIOD    2   TIME STEP 4539
 
 SOLVING FOR HEAD 

 NO OUTPUT CONTROL FOR STRESS PERIOD    2   TIME STEP 4540
 
 SOLVING FOR HEAD 

 NO OUTPUT CONTROL FOR STRESS PERIOD    2   TIME STEP 4541
 
 SOLVING FOR HEAD 

 NO OUTPUT CONTROL FOR STRESS PERIOD    2   TIME STEP 4542
 
 SOLVING FOR HEAD 

 NO OUTPUT CONTROL FOR STRESS PERIOD    2   TIME STEP 4543
 
 SOLVING FOR HEAD 

 NO OUTPUT CONTROL FOR STRESS PERIOD    2   TIME STEP 4544
 
 SOLVING FOR HEAD 

 NO OUTPUT CONTROL FOR STRESS PERIOD    2   TIME STEP 4545
 
 SOLVING FOR HEAD 

 NO OUTPUT CONTROL FOR STRESS PERIOD    2   TIME STEP 4546
 
 SOLVING FOR HEAD 

 NO OUTPUT CONTROL FOR STRESS PERIOD    2   TIME STEP 4547
 
 SOLVING FOR HEAD 

 NO OUTPUT CONTROL FOR STRESS PERIOD    2   TIME STEP 4548
 
 SOLVING FOR HEAD 

 NO OUTPUT CONTROL FOR STRESS PERIOD    2   TIME STEP 4549
 
 SOLVING FOR HEAD 

 NO OUTPUT CONTROL FOR STRESS PERIOD    2   TIME STEP 4550
 
 SOLVING FOR HEAD 

 NO OUTPUT CONTROL FOR STRESS PERIOD    2   TIME STEP 4551
 
 SOLVING FOR HEAD 

 NO OUTPUT CONTROL FOR STRESS PERIOD    2   TIME STEP 4552
 
 SOLVING FOR HEAD 

 NO OUTPUT CONTROL FOR STRESS PERIOD    2   TIME STEP 4553
 
 SOLVING FOR HEAD 

 NO OUTPUT CONTROL FOR STRESS PERIOD    2   TIME STEP 4554
 
 SOLVING FOR HEAD 

 NO OUTPUT CONTROL FOR STRESS PERIOD    2   TIME STEP 4555
 
 SOLVING FOR HEAD 

 NO OUTPUT CONTROL FOR STRESS PERIOD    2   TIME STEP 4556
 
 SOLVING FOR HEAD 

 NO OUTPUT CONTROL FOR STRESS PERIOD    2   TIME STEP 4557
 
 SOLVING FOR HEAD 

 NO OUTPUT CONTROL FOR STRESS PERIOD    2   TIME STEP 4558
 
 SOLVING FOR HEAD 

 NO OUTPUT CONTROL FOR STRESS PERIOD    2   TIME STEP 4559
 
 SOLVING FOR HEAD 

 NO OUTPUT CONTROL FOR STRESS PERIOD    2   TIME STEP 4560
 
 SOLVING FOR HEAD 

 NO OUTPUT CONTROL FOR STRESS PERIOD    2   TIME STEP 4561
 
 SOLVING FOR HEAD 

 NO OUTPUT CONTROL FOR STRESS PERIOD    2   TIME STEP 4562
 
 SOLVING FOR HEAD 

 NO OUTPUT CONTROL FOR STRESS PERIOD    2   TIME STEP 4563
 
 SOLVING FOR HEAD 

 NO OUTPUT CONTROL FOR STRESS PERIOD    2   TIME STEP 4564
 
 SOLVING FOR HEAD 

 NO OUTPUT CONTROL FOR STRESS PERIOD    2   TIME STEP 4565
 
 SOLVING FOR HEAD 

 NO OUTPUT CONTROL FOR STRESS PERIOD    2   TIME STEP 4566
 
 SOLVING FOR HEAD 

 NO OUTPUT CONTROL FOR STRESS PERIOD    2   TIME STEP 4567
 
 SOLVING FOR HEAD 

 NO OUTPUT CONTROL FOR STRESS PERIOD    2   TIME STEP 4568
 
 SOLVING FOR HEAD 

 NO OUTPUT CONTROL FOR STRESS PERIOD    2   TIME STEP 4569
 
 SOLVING FOR HEAD 

 NO OUTPUT CONTROL FOR STRESS PERIOD    2   TIME STEP 4570
 
 SOLVING FOR HEAD 

 NO OUTPUT CONTROL FOR STRESS PERIOD    2   TIME STEP 4571
 
 SOLVING FOR HEAD 

 NO OUTPUT CONTROL FOR STRESS PERIOD    2   TIME STEP 4572
 
 SOLVING FOR HEAD 

 NO OUTPUT CONTROL FOR STRESS PERIOD    2   TIME STEP 4573
 
 SOLVING FOR HEAD 

 NO OUTPUT CONTROL FOR STRESS PERIOD    2   TIME STEP 4574
 
 SOLVING FOR HEAD 

 NO OUTPUT CONTROL FOR STRESS PERIOD    2   TIME STEP 4575
 
 SOLVING FOR HEAD 

 NO OUTPUT CONTROL FOR STRESS PERIOD    2   TIME STEP 4576
 
 SOLVING FOR HEAD 

 NO OUTPUT CONTROL FOR STRESS PERIOD    2   TIME STEP 4577
 
 SOLVING FOR HEAD 

 NO OUTPUT CONTROL FOR STRESS PERIOD    2   TIME STEP 4578
 
 SOLVING FOR HEAD 

 NO OUTPUT CONTROL FOR STRESS PERIOD    2   TIME STEP 4579
 
 SOLVING FOR HEAD 

 NO OUTPUT CONTROL FOR STRESS PERIOD    2   TIME STEP 4580
 
 SOLVING FOR HEAD 

 NO OUTPUT CONTROL FOR STRESS PERIOD    2   TIME STEP 4581
 
 SOLVING FOR HEAD 

 NO OUTPUT CONTROL FOR STRESS PERIOD    2   TIME STEP 4582
 
 SOLVING FOR HEAD 

 NO OUTPUT CONTROL FOR STRESS PERIOD    2   TIME STEP 4583
 
 SOLVING FOR HEAD 

 NO OUTPUT CONTROL FOR STRESS PERIOD    2   TIME STEP 4584
 
 SOLVING FOR HEAD 

 NO OUTPUT CONTROL FOR STRESS PERIOD    2   TIME STEP 4585
 
 SOLVING FOR HEAD 

 NO OUTPUT CONTROL FOR STRESS PERIOD    2   TIME STEP 4586
 
 SOLVING FOR HEAD 

 NO OUTPUT CONTROL FOR STRESS PERIOD    2   TIME STEP 4587
 
 SOLVING FOR HEAD 

 NO OUTPUT CONTROL FOR STRESS PERIOD    2   TIME STEP 4588
 
 SOLVING FOR HEAD 

 NO OUTPUT CONTROL FOR STRESS PERIOD    2   TIME STEP 4589
 
 SOLVING FOR HEAD 

 NO OUTPUT CONTROL FOR STRESS PERIOD    2   TIME STEP 4590
 
 SOLVING FOR HEAD 

 NO OUTPUT CONTROL FOR STRESS PERIOD    2   TIME STEP 4591
 
 SOLVING FOR HEAD 

 NO OUTPUT CONTROL FOR STRESS PERIOD    2   TIME STEP 4592
 
 SOLVING FOR HEAD 

 NO OUTPUT CONTROL FOR STRESS PERIOD    2   TIME STEP 4593
 
 SOLVING FOR HEAD 

 NO OUTPUT CONTROL FOR STRESS PERIOD    2   TIME STEP 4594
 
 SOLVING FOR HEAD 

 NO OUTPUT CONTROL FOR STRESS PERIOD    2   TIME STEP 4595
 
 SOLVING FOR HEAD 

 NO OUTPUT CONTROL FOR STRESS PERIOD    2   TIME STEP 4596
 
 SOLVING FOR HEAD 

 NO OUTPUT CONTROL FOR STRESS PERIOD    2   TIME STEP 4597
 
 SOLVING FOR HEAD 

 NO OUTPUT CONTROL FOR STRESS PERIOD    2   TIME STEP 4598
 
 SOLVING FOR HEAD 

 NO OUTPUT CONTROL FOR STRESS PERIOD    2   TIME STEP 4599
 
 SOLVING FOR HEAD 

 NO OUTPUT CONTROL FOR STRESS PERIOD    2   TIME STEP 4600
 
 SOLVING FOR HEAD 

 NO OUTPUT CONTROL FOR STRESS PERIOD    2   TIME STEP 4601
 
 SOLVING FOR HEAD 

 NO OUTPUT CONTROL FOR STRESS PERIOD    2   TIME STEP 4602
 
 SOLVING FOR HEAD 

 NO OUTPUT CONTROL FOR STRESS PERIOD    2   TIME STEP 4603
 
 SOLVING FOR HEAD 

 NO OUTPUT CONTROL FOR STRESS PERIOD    2   TIME STEP 4604
 
 SOLVING FOR HEAD 

 NO OUTPUT CONTROL FOR STRESS PERIOD    2   TIME STEP 4605
 
 SOLVING FOR HEAD 

 NO OUTPUT CONTROL FOR STRESS PERIOD    2   TIME STEP 4606
 
 SOLVING FOR HEAD 

 NO OUTPUT CONTROL FOR STRESS PERIOD    2   TIME STEP 4607
 
 SOLVING FOR HEAD 

 NO OUTPUT CONTROL FOR STRESS PERIOD    2   TIME STEP 4608
 
 SOLVING FOR HEAD 

 NO OUTPUT CONTROL FOR STRESS PERIOD    2   TIME STEP 4609
 
 SOLVING FOR HEAD 

 NO OUTPUT CONTROL FOR STRESS PERIOD    2   TIME STEP 4610
 
 SOLVING FOR HEAD 

 NO OUTPUT CONTROL FOR STRESS PERIOD    2   TIME STEP 4611
 
 SOLVING FOR HEAD 

 NO OUTPUT CONTROL FOR STRESS PERIOD    2   TIME STEP 4612
 
 SOLVING FOR HEAD 

 NO OUTPUT CONTROL FOR STRESS PERIOD    2   TIME STEP 4613
 
 SOLVING FOR HEAD 

 NO OUTPUT CONTROL FOR STRESS PERIOD    2   TIME STEP 4614
 
 SOLVING FOR HEAD 

 NO OUTPUT CONTROL FOR STRESS PERIOD    2   TIME STEP 4615
 
 SOLVING FOR HEAD 

 NO OUTPUT CONTROL FOR STRESS PERIOD    2   TIME STEP 4616
 
 SOLVING FOR HEAD 

 NO OUTPUT CONTROL FOR STRESS PERIOD    2   TIME STEP 4617
 
 SOLVING FOR HEAD 

 NO OUTPUT CONTROL FOR STRESS PERIOD    2   TIME STEP 4618
 
 SOLVING FOR HEAD 

 NO OUTPUT CONTROL FOR STRESS PERIOD    2   TIME STEP 4619
 
 SOLVING FOR HEAD 

 NO OUTPUT CONTROL FOR STRESS PERIOD    2   TIME STEP 4620
 
 SOLVING FOR HEAD 

 NO OUTPUT CONTROL FOR STRESS PERIOD    2   TIME STEP 4621
 
 SOLVING FOR HEAD 

 NO OUTPUT CONTROL FOR STRESS PERIOD    2   TIME STEP 4622
 
 SOLVING FOR HEAD 

 NO OUTPUT CONTROL FOR STRESS PERIOD    2   TIME STEP 4623
 
 SOLVING FOR HEAD 

 NO OUTPUT CONTROL FOR STRESS PERIOD    2   TIME STEP 4624
 
 SOLVING FOR HEAD 

 NO OUTPUT CONTROL FOR STRESS PERIOD    2   TIME STEP 4625
 
 SOLVING FOR HEAD 

 NO OUTPUT CONTROL FOR STRESS PERIOD    2   TIME STEP 4626
 
 SOLVING FOR HEAD 

 NO OUTPUT CONTROL FOR STRESS PERIOD    2   TIME STEP 4627
 
 SOLVING FOR HEAD 

 NO OUTPUT CONTROL FOR STRESS PERIOD    2   TIME STEP 4628
 
 SOLVING FOR HEAD 

 NO OUTPUT CONTROL FOR STRESS PERIOD    2   TIME STEP 4629
 
 SOLVING FOR HEAD 

 NO OUTPUT CONTROL FOR STRESS PERIOD    2   TIME STEP 4630
 
 SOLVING FOR HEAD 

 NO OUTPUT CONTROL FOR STRESS PERIOD    2   TIME STEP 4631
 
 SOLVING FOR HEAD 

 NO OUTPUT CONTROL FOR STRESS PERIOD    2   TIME STEP 4632
 
 SOLVING FOR HEAD 

 NO OUTPUT CONTROL FOR STRESS PERIOD    2   TIME STEP 4633
 
 SOLVING FOR HEAD 

 NO OUTPUT CONTROL FOR STRESS PERIOD    2   TIME STEP 4634
 
 SOLVING FOR HEAD 

 NO OUTPUT CONTROL FOR STRESS PERIOD    2   TIME STEP 4635
 
 SOLVING FOR HEAD 

 NO OUTPUT CONTROL FOR STRESS PERIOD    2   TIME STEP 4636
 
 SOLVING FOR HEAD 

 NO OUTPUT CONTROL FOR STRESS PERIOD    2   TIME STEP 4637
 
 SOLVING FOR HEAD 

 NO OUTPUT CONTROL FOR STRESS PERIOD    2   TIME STEP 4638
 
 SOLVING FOR HEAD 

 NO OUTPUT CONTROL FOR STRESS PERIOD    2   TIME STEP 4639
 
 SOLVING FOR HEAD 

 NO OUTPUT CONTROL FOR STRESS PERIOD    2   TIME STEP 4640
 
 SOLVING FOR HEAD 

 NO OUTPUT CONTROL FOR STRESS PERIOD    2   TIME STEP 4641
 
 SOLVING FOR HEAD 

 NO OUTPUT CONTROL FOR STRESS PERIOD    2   TIME STEP 4642
 
 SOLVING FOR HEAD 

 NO OUTPUT CONTROL FOR STRESS PERIOD    2   TIME STEP 4643
 
 SOLVING FOR HEAD 

 NO OUTPUT CONTROL FOR STRESS PERIOD    2   TIME STEP 4644
 
 SOLVING FOR HEAD 

 NO OUTPUT CONTROL FOR STRESS PERIOD    2   TIME STEP 4645
 
 SOLVING FOR HEAD 

 NO OUTPUT CONTROL FOR STRESS PERIOD    2   TIME STEP 4646
 
 SOLVING FOR HEAD 

 NO OUTPUT CONTROL FOR STRESS PERIOD    2   TIME STEP 4647
 
 SOLVING FOR HEAD 

 NO OUTPUT CONTROL FOR STRESS PERIOD    2   TIME STEP 4648
 
 SOLVING FOR HEAD 

 NO OUTPUT CONTROL FOR STRESS PERIOD    2   TIME STEP 4649
 
 SOLVING FOR HEAD 

 NO OUTPUT CONTROL FOR STRESS PERIOD    2   TIME STEP 4650
 
 SOLVING FOR HEAD 

 NO OUTPUT CONTROL FOR STRESS PERIOD    2   TIME STEP 4651
 
 SOLVING FOR HEAD 

 NO OUTPUT CONTROL FOR STRESS PERIOD    2   TIME STEP 4652
 
 SOLVING FOR HEAD 

 NO OUTPUT CONTROL FOR STRESS PERIOD    2   TIME STEP 4653
 
 SOLVING FOR HEAD 

 NO OUTPUT CONTROL FOR STRESS PERIOD    2   TIME STEP 4654
 
 SOLVING FOR HEAD 

 NO OUTPUT CONTROL FOR STRESS PERIOD    2   TIME STEP 4655
 
 SOLVING FOR HEAD 

 NO OUTPUT CONTROL FOR STRESS PERIOD    2   TIME STEP 4656
 
 SOLVING FOR HEAD 

 NO OUTPUT CONTROL FOR STRESS PERIOD    2   TIME STEP 4657
 
 SOLVING FOR HEAD 

 NO OUTPUT CONTROL FOR STRESS PERIOD    2   TIME STEP 4658
 
 SOLVING FOR HEAD 

 NO OUTPUT CONTROL FOR STRESS PERIOD    2   TIME STEP 4659
 
 SOLVING FOR HEAD 

 NO OUTPUT CONTROL FOR STRESS PERIOD    2   TIME STEP 4660
 
 SOLVING FOR HEAD 

 NO OUTPUT CONTROL FOR STRESS PERIOD    2   TIME STEP 4661
 
 SOLVING FOR HEAD 

 NO OUTPUT CONTROL FOR STRESS PERIOD    2   TIME STEP 4662
 
 SOLVING FOR HEAD 

 NO OUTPUT CONTROL FOR STRESS PERIOD    2   TIME STEP 4663
 
 SOLVING FOR HEAD 

 NO OUTPUT CONTROL FOR STRESS PERIOD    2   TIME STEP 4664
 
 SOLVING FOR HEAD 

 NO OUTPUT CONTROL FOR STRESS PERIOD    2   TIME STEP 4665
 
 SOLVING FOR HEAD 

 NO OUTPUT CONTROL FOR STRESS PERIOD    2   TIME STEP 4666
 
 SOLVING FOR HEAD 

 NO OUTPUT CONTROL FOR STRESS PERIOD    2   TIME STEP 4667
 
 SOLVING FOR HEAD 

 NO OUTPUT CONTROL FOR STRESS PERIOD    2   TIME STEP 4668
 
 SOLVING FOR HEAD 

 NO OUTPUT CONTROL FOR STRESS PERIOD    2   TIME STEP 4669
 
 SOLVING FOR HEAD 

 NO OUTPUT CONTROL FOR STRESS PERIOD    2   TIME STEP 4670
 
 SOLVING FOR HEAD 

 NO OUTPUT CONTROL FOR STRESS PERIOD    2   TIME STEP 4671
 
 SOLVING FOR HEAD 

 NO OUTPUT CONTROL FOR STRESS PERIOD    2   TIME STEP 4672
 
 SOLVING FOR HEAD 

 NO OUTPUT CONTROL FOR STRESS PERIOD    2   TIME STEP 4673
 
 SOLVING FOR HEAD 

 NO OUTPUT CONTROL FOR STRESS PERIOD    2   TIME STEP 4674
 
 SOLVING FOR HEAD 

 NO OUTPUT CONTROL FOR STRESS PERIOD    2   TIME STEP 4675
 
 SOLVING FOR HEAD 

 NO OUTPUT CONTROL FOR STRESS PERIOD    2   TIME STEP 4676
 
 SOLVING FOR HEAD 

 NO OUTPUT CONTROL FOR STRESS PERIOD    2   TIME STEP 4677
 
 SOLVING FOR HEAD 

 NO OUTPUT CONTROL FOR STRESS PERIOD    2   TIME STEP 4678
 
 SOLVING FOR HEAD 

 NO OUTPUT CONTROL FOR STRESS PERIOD    2   TIME STEP 4679
 
 SOLVING FOR HEAD 

 NO OUTPUT CONTROL FOR STRESS PERIOD    2   TIME STEP 4680
 
 SOLVING FOR HEAD 

 NO OUTPUT CONTROL FOR STRESS PERIOD    2   TIME STEP 4681
 
 SOLVING FOR HEAD 

 NO OUTPUT CONTROL FOR STRESS PERIOD    2   TIME STEP 4682
 
 SOLVING FOR HEAD 

 NO OUTPUT CONTROL FOR STRESS PERIOD    2   TIME STEP 4683
 
 SOLVING FOR HEAD 

 NO OUTPUT CONTROL FOR STRESS PERIOD    2   TIME STEP 4684
 
 SOLVING FOR HEAD 

 NO OUTPUT CONTROL FOR STRESS PERIOD    2   TIME STEP 4685
 
 SOLVING FOR HEAD 

 NO OUTPUT CONTROL FOR STRESS PERIOD    2   TIME STEP 4686
 
 SOLVING FOR HEAD 

 NO OUTPUT CONTROL FOR STRESS PERIOD    2   TIME STEP 4687
 
 SOLVING FOR HEAD 

 NO OUTPUT CONTROL FOR STRESS PERIOD    2   TIME STEP 4688
 
 SOLVING FOR HEAD 

 NO OUTPUT CONTROL FOR STRESS PERIOD    2   TIME STEP 4689
 
 SOLVING FOR HEAD 

 NO OUTPUT CONTROL FOR STRESS PERIOD    2   TIME STEP 4690
 
 SOLVING FOR HEAD 

 NO OUTPUT CONTROL FOR STRESS PERIOD    2   TIME STEP 4691
 
 SOLVING FOR HEAD 

 NO OUTPUT CONTROL FOR STRESS PERIOD    2   TIME STEP 4692
 
 SOLVING FOR HEAD 

 NO OUTPUT CONTROL FOR STRESS PERIOD    2   TIME STEP 4693
 
 SOLVING FOR HEAD 

 NO OUTPUT CONTROL FOR STRESS PERIOD    2   TIME STEP 4694
 
 SOLVING FOR HEAD 

 NO OUTPUT CONTROL FOR STRESS PERIOD    2   TIME STEP 4695
 
 SOLVING FOR HEAD 

 NO OUTPUT CONTROL FOR STRESS PERIOD    2   TIME STEP 4696
 
 SOLVING FOR HEAD 

 NO OUTPUT CONTROL FOR STRESS PERIOD    2   TIME STEP 4697
 
 SOLVING FOR HEAD 

 NO OUTPUT CONTROL FOR STRESS PERIOD    2   TIME STEP 4698
 
 SOLVING FOR HEAD 

 NO OUTPUT CONTROL FOR STRESS PERIOD    2   TIME STEP 4699
 
 SOLVING FOR HEAD 

 NO OUTPUT CONTROL FOR STRESS PERIOD    2   TIME STEP 4700
 
 SOLVING FOR HEAD 

 NO OUTPUT CONTROL FOR STRESS PERIOD    2   TIME STEP 4701
 
 SOLVING FOR HEAD 

 NO OUTPUT CONTROL FOR STRESS PERIOD    2   TIME STEP 4702
 
 SOLVING FOR HEAD 

 NO OUTPUT CONTROL FOR STRESS PERIOD    2   TIME STEP 4703
 
 SOLVING FOR HEAD 

 NO OUTPUT CONTROL FOR STRESS PERIOD    2   TIME STEP 4704
 
 SOLVING FOR HEAD 

 NO OUTPUT CONTROL FOR STRESS PERIOD    2   TIME STEP 4705
 
 SOLVING FOR HEAD 

 NO OUTPUT CONTROL FOR STRESS PERIOD    2   TIME STEP 4706
 
 SOLVING FOR HEAD 

 NO OUTPUT CONTROL FOR STRESS PERIOD    2   TIME STEP 4707
 
 SOLVING FOR HEAD 

 NO OUTPUT CONTROL FOR STRESS PERIOD    2   TIME STEP 4708
 
 SOLVING FOR HEAD 

 NO OUTPUT CONTROL FOR STRESS PERIOD    2   TIME STEP 4709
 
 SOLVING FOR HEAD 

 NO OUTPUT CONTROL FOR STRESS PERIOD    2   TIME STEP 4710
 
 SOLVING FOR HEAD 

 NO OUTPUT CONTROL FOR STRESS PERIOD    2   TIME STEP 4711
 
 SOLVING FOR HEAD 

 NO OUTPUT CONTROL FOR STRESS PERIOD    2   TIME STEP 4712
 
 SOLVING FOR HEAD 

 NO OUTPUT CONTROL FOR STRESS PERIOD    2   TIME STEP 4713
 
 SOLVING FOR HEAD 

 NO OUTPUT CONTROL FOR STRESS PERIOD    2   TIME STEP 4714
 
 SOLVING FOR HEAD 

 NO OUTPUT CONTROL FOR STRESS PERIOD    2   TIME STEP 4715
 
 SOLVING FOR HEAD 

 NO OUTPUT CONTROL FOR STRESS PERIOD    2   TIME STEP 4716
 
 SOLVING FOR HEAD 

 NO OUTPUT CONTROL FOR STRESS PERIOD    2   TIME STEP 4717
 
 SOLVING FOR HEAD 

 NO OUTPUT CONTROL FOR STRESS PERIOD    2   TIME STEP 4718
 
 SOLVING FOR HEAD 

 NO OUTPUT CONTROL FOR STRESS PERIOD    2   TIME STEP 4719
 
 SOLVING FOR HEAD 

 NO OUTPUT CONTROL FOR STRESS PERIOD    2   TIME STEP 4720
 
 SOLVING FOR HEAD 

 NO OUTPUT CONTROL FOR STRESS PERIOD    2   TIME STEP 4721
 
 SOLVING FOR HEAD 

 NO OUTPUT CONTROL FOR STRESS PERIOD    2   TIME STEP 4722
 
 SOLVING FOR HEAD 

 NO OUTPUT CONTROL FOR STRESS PERIOD    2   TIME STEP 4723
 
 SOLVING FOR HEAD 

 NO OUTPUT CONTROL FOR STRESS PERIOD    2   TIME STEP 4724
 
 SOLVING FOR HEAD 

 NO OUTPUT CONTROL FOR STRESS PERIOD    2   TIME STEP 4725
 
 SOLVING FOR HEAD 

 NO OUTPUT CONTROL FOR STRESS PERIOD    2   TIME STEP 4726
 
 SOLVING FOR HEAD 

 NO OUTPUT CONTROL FOR STRESS PERIOD    2   TIME STEP 4727
 
 SOLVING FOR HEAD 

 NO OUTPUT CONTROL FOR STRESS PERIOD    2   TIME STEP 4728
 
 SOLVING FOR HEAD 

 NO OUTPUT CONTROL FOR STRESS PERIOD    2   TIME STEP 4729
 
 SOLVING FOR HEAD 

 NO OUTPUT CONTROL FOR STRESS PERIOD    2   TIME STEP 4730
 
 SOLVING FOR HEAD 

 NO OUTPUT CONTROL FOR STRESS PERIOD    2   TIME STEP 4731
 
 SOLVING FOR HEAD 

 NO OUTPUT CONTROL FOR STRESS PERIOD    2   TIME STEP 4732
 
 SOLVING FOR HEAD 

 NO OUTPUT CONTROL FOR STRESS PERIOD    2   TIME STEP 4733
 
 SOLVING FOR HEAD 

 NO OUTPUT CONTROL FOR STRESS PERIOD    2   TIME STEP 4734
 
 SOLVING FOR HEAD 

 NO OUTPUT CONTROL FOR STRESS PERIOD    2   TIME STEP 4735
 
 SOLVING FOR HEAD 

 NO OUTPUT CONTROL FOR STRESS PERIOD    2   TIME STEP 4736
 
 SOLVING FOR HEAD 

 NO OUTPUT CONTROL FOR STRESS PERIOD    2   TIME STEP 4737
 
 SOLVING FOR HEAD 

 NO OUTPUT CONTROL FOR STRESS PERIOD    2   TIME STEP 4738
 
 SOLVING FOR HEAD 

 NO OUTPUT CONTROL FOR STRESS PERIOD    2   TIME STEP 4739
 
 SOLVING FOR HEAD 

 NO OUTPUT CONTROL FOR STRESS PERIOD    2   TIME STEP 4740
 
 SOLVING FOR HEAD 

 NO OUTPUT CONTROL FOR STRESS PERIOD    2   TIME STEP 4741
 
 SOLVING FOR HEAD 

 NO OUTPUT CONTROL FOR STRESS PERIOD    2   TIME STEP 4742
 
 SOLVING FOR HEAD 

 NO OUTPUT CONTROL FOR STRESS PERIOD    2   TIME STEP 4743
 
 SOLVING FOR HEAD 

 NO OUTPUT CONTROL FOR STRESS PERIOD    2   TIME STEP 4744
 
 SOLVING FOR HEAD 

 NO OUTPUT CONTROL FOR STRESS PERIOD    2   TIME STEP 4745
 
 SOLVING FOR HEAD 

 NO OUTPUT CONTROL FOR STRESS PERIOD    2   TIME STEP 4746
 
 SOLVING FOR HEAD 

 NO OUTPUT CONTROL FOR STRESS PERIOD    2   TIME STEP 4747
 
 SOLVING FOR HEAD 

 NO OUTPUT CONTROL FOR STRESS PERIOD    2   TIME STEP 4748
 
 SOLVING FOR HEAD 

 NO OUTPUT CONTROL FOR STRESS PERIOD    2   TIME STEP 4749
 
 SOLVING FOR HEAD 

 NO OUTPUT CONTROL FOR STRESS PERIOD    2   TIME STEP 4750
 
 SOLVING FOR HEAD 

 NO OUTPUT CONTROL FOR STRESS PERIOD    2   TIME STEP 4751
 
 SOLVING FOR HEAD 

 NO OUTPUT CONTROL FOR STRESS PERIOD    2   TIME STEP 4752
 
 SOLVING FOR HEAD 

 NO OUTPUT CONTROL FOR STRESS PERIOD    2   TIME STEP 4753
 
 SOLVING FOR HEAD 

 NO OUTPUT CONTROL FOR STRESS PERIOD    2   TIME STEP 4754
 
 SOLVING FOR HEAD 

 NO OUTPUT CONTROL FOR STRESS PERIOD    2   TIME STEP 4755
 
 SOLVING FOR HEAD 

 NO OUTPUT CONTROL FOR STRESS PERIOD    2   TIME STEP 4756
 
 SOLVING FOR HEAD 

 NO OUTPUT CONTROL FOR STRESS PERIOD    2   TIME STEP 4757
 
 SOLVING FOR HEAD 

 NO OUTPUT CONTROL FOR STRESS PERIOD    2   TIME STEP 4758
 
 SOLVING FOR HEAD 

 NO OUTPUT CONTROL FOR STRESS PERIOD    2   TIME STEP 4759
 
 SOLVING FOR HEAD 

 NO OUTPUT CONTROL FOR STRESS PERIOD    2   TIME STEP 4760
 
 SOLVING FOR HEAD 

 NO OUTPUT CONTROL FOR STRESS PERIOD    2   TIME STEP 4761
 
 SOLVING FOR HEAD 

 NO OUTPUT CONTROL FOR STRESS PERIOD    2   TIME STEP 4762
 
 SOLVING FOR HEAD 

 NO OUTPUT CONTROL FOR STRESS PERIOD    2   TIME STEP 4763
 
 SOLVING FOR HEAD 

 NO OUTPUT CONTROL FOR STRESS PERIOD    2   TIME STEP 4764
 
 SOLVING FOR HEAD 

 NO OUTPUT CONTROL FOR STRESS PERIOD    2   TIME STEP 4765
 
 SOLVING FOR HEAD 

 NO OUTPUT CONTROL FOR STRESS PERIOD    2   TIME STEP 4766
 
 SOLVING FOR HEAD 

 NO OUTPUT CONTROL FOR STRESS PERIOD    2   TIME STEP 4767
 
 SOLVING FOR HEAD 

 NO OUTPUT CONTROL FOR STRESS PERIOD    2   TIME STEP 4768
 
 SOLVING FOR HEAD 

 NO OUTPUT CONTROL FOR STRESS PERIOD    2   TIME STEP 4769
 
 SOLVING FOR HEAD 

 NO OUTPUT CONTROL FOR STRESS PERIOD    2   TIME STEP 4770
 
 SOLVING FOR HEAD 

 NO OUTPUT CONTROL FOR STRESS PERIOD    2   TIME STEP 4771
 
 SOLVING FOR HEAD 

 NO OUTPUT CONTROL FOR STRESS PERIOD    2   TIME STEP 4772
 
 SOLVING FOR HEAD 

 NO OUTPUT CONTROL FOR STRESS PERIOD    2   TIME STEP 4773
 
 SOLVING FOR HEAD 

 NO OUTPUT CONTROL FOR STRESS PERIOD    2   TIME STEP 4774
 
 SOLVING FOR HEAD 

 NO OUTPUT CONTROL FOR STRESS PERIOD    2   TIME STEP 4775
 
 SOLVING FOR HEAD 

 NO OUTPUT CONTROL FOR STRESS PERIOD    2   TIME STEP 4776
 
 SOLVING FOR HEAD 

 NO OUTPUT CONTROL FOR STRESS PERIOD    2   TIME STEP 4777
 
 SOLVING FOR HEAD 

 NO OUTPUT CONTROL FOR STRESS PERIOD    2   TIME STEP 4778
 
 SOLVING FOR HEAD 

 NO OUTPUT CONTROL FOR STRESS PERIOD    2   TIME STEP 4779
 
 SOLVING FOR HEAD 

 NO OUTPUT CONTROL FOR STRESS PERIOD    2   TIME STEP 4780
 
 SOLVING FOR HEAD 

 NO OUTPUT CONTROL FOR STRESS PERIOD    2   TIME STEP 4781
 
 SOLVING FOR HEAD 

 NO OUTPUT CONTROL FOR STRESS PERIOD    2   TIME STEP 4782
 
 SOLVING FOR HEAD 

 NO OUTPUT CONTROL FOR STRESS PERIOD    2   TIME STEP 4783
 
 SOLVING FOR HEAD 

 NO OUTPUT CONTROL FOR STRESS PERIOD    2   TIME STEP 4784
 
 SOLVING FOR HEAD 

 NO OUTPUT CONTROL FOR STRESS PERIOD    2   TIME STEP 4785
 
 SOLVING FOR HEAD 

 NO OUTPUT CONTROL FOR STRESS PERIOD    2   TIME STEP 4786
 
 SOLVING FOR HEAD 

 NO OUTPUT CONTROL FOR STRESS PERIOD    2   TIME STEP 4787
 
 SOLVING FOR HEAD 

 NO OUTPUT CONTROL FOR STRESS PERIOD    2   TIME STEP 4788
 
 SOLVING FOR HEAD 

 NO OUTPUT CONTROL FOR STRESS PERIOD    2   TIME STEP 4789
 
 SOLVING FOR HEAD 

 NO OUTPUT CONTROL FOR STRESS PERIOD    2   TIME STEP 4790
 
 SOLVING FOR HEAD 

 NO OUTPUT CONTROL FOR STRESS PERIOD    2   TIME STEP 4791
 
 SOLVING FOR HEAD 

 NO OUTPUT CONTROL FOR STRESS PERIOD    2   TIME STEP 4792
 
 SOLVING FOR HEAD 

 NO OUTPUT CONTROL FOR STRESS PERIOD    2   TIME STEP 4793
 
 SOLVING FOR HEAD 

 NO OUTPUT CONTROL FOR STRESS PERIOD    2   TIME STEP 4794
 
 SOLVING FOR HEAD 

 NO OUTPUT CONTROL FOR STRESS PERIOD    2   TIME STEP 4795
 
 SOLVING FOR HEAD 

 NO OUTPUT CONTROL FOR STRESS PERIOD    2   TIME STEP 4796
 
 SOLVING FOR HEAD 

 NO OUTPUT CONTROL FOR STRESS PERIOD    2   TIME STEP 4797
 
 SOLVING FOR HEAD 

 NO OUTPUT CONTROL FOR STRESS PERIOD    2   TIME STEP 4798
 
 SOLVING FOR HEAD 

 NO OUTPUT CONTROL FOR STRESS PERIOD    2   TIME STEP 4799
 
 SOLVING FOR HEAD 

 NO OUTPUT CONTROL FOR STRESS PERIOD    2   TIME STEP 4800
 
 SOLVING FOR HEAD 

 NO OUTPUT CONTROL FOR STRESS PERIOD    2   TIME STEP 4801
 
 SOLVING FOR HEAD 

 NO OUTPUT CONTROL FOR STRESS PERIOD    2   TIME STEP 4802
 
 SOLVING FOR HEAD 

 NO OUTPUT CONTROL FOR STRESS PERIOD    2   TIME STEP 4803
 
 SOLVING FOR HEAD 

 NO OUTPUT CONTROL FOR STRESS PERIOD    2   TIME STEP 4804
 
 SOLVING FOR HEAD 

 NO OUTPUT CONTROL FOR STRESS PERIOD    2   TIME STEP 4805
 
 SOLVING FOR HEAD 

 NO OUTPUT CONTROL FOR STRESS PERIOD    2   TIME STEP 4806
 
 SOLVING FOR HEAD 

 NO OUTPUT CONTROL FOR STRESS PERIOD    2   TIME STEP 4807
 
 SOLVING FOR HEAD 

 NO OUTPUT CONTROL FOR STRESS PERIOD    2   TIME STEP 4808
 
 SOLVING FOR HEAD 

 NO OUTPUT CONTROL FOR STRESS PERIOD    2   TIME STEP 4809
 
 SOLVING FOR HEAD 

 NO OUTPUT CONTROL FOR STRESS PERIOD    2   TIME STEP 4810
 
 SOLVING FOR HEAD 

 NO OUTPUT CONTROL FOR STRESS PERIOD    2   TIME STEP 4811
 
 SOLVING FOR HEAD 

 NO OUTPUT CONTROL FOR STRESS PERIOD    2   TIME STEP 4812
 
 SOLVING FOR HEAD 

 NO OUTPUT CONTROL FOR STRESS PERIOD    2   TIME STEP 4813
 
 SOLVING FOR HEAD 

 NO OUTPUT CONTROL FOR STRESS PERIOD    2   TIME STEP 4814
 
 SOLVING FOR HEAD 

 NO OUTPUT CONTROL FOR STRESS PERIOD    2   TIME STEP 4815
 
 SOLVING FOR HEAD 

 NO OUTPUT CONTROL FOR STRESS PERIOD    2   TIME STEP 4816
 
 SOLVING FOR HEAD 

 NO OUTPUT CONTROL FOR STRESS PERIOD    2   TIME STEP 4817
 
 SOLVING FOR HEAD 

 NO OUTPUT CONTROL FOR STRESS PERIOD    2   TIME STEP 4818
 
 SOLVING FOR HEAD 

 NO OUTPUT CONTROL FOR STRESS PERIOD    2   TIME STEP 4819
 
 SOLVING FOR HEAD 

 NO OUTPUT CONTROL FOR STRESS PERIOD    2   TIME STEP 4820
 
 SOLVING FOR HEAD 

 NO OUTPUT CONTROL FOR STRESS PERIOD    2   TIME STEP 4821
 
 SOLVING FOR HEAD 

 NO OUTPUT CONTROL FOR STRESS PERIOD    2   TIME STEP 4822
 
 SOLVING FOR HEAD 

 NO OUTPUT CONTROL FOR STRESS PERIOD    2   TIME STEP 4823
 
 SOLVING FOR HEAD 

 NO OUTPUT CONTROL FOR STRESS PERIOD    2   TIME STEP 4824
 
 SOLVING FOR HEAD 

 NO OUTPUT CONTROL FOR STRESS PERIOD    2   TIME STEP 4825
 
 SOLVING FOR HEAD 

 NO OUTPUT CONTROL FOR STRESS PERIOD    2   TIME STEP 4826
 
 SOLVING FOR HEAD 

 NO OUTPUT CONTROL FOR STRESS PERIOD    2   TIME STEP 4827
 
 SOLVING FOR HEAD 

 NO OUTPUT CONTROL FOR STRESS PERIOD    2   TIME STEP 4828
 
 SOLVING FOR HEAD 

 NO OUTPUT CONTROL FOR STRESS PERIOD    2   TIME STEP 4829
 
 SOLVING FOR HEAD 

 NO OUTPUT CONTROL FOR STRESS PERIOD    2   TIME STEP 4830
 
 SOLVING FOR HEAD 

 NO OUTPUT CONTROL FOR STRESS PERIOD    2   TIME STEP 4831
 
 SOLVING FOR HEAD 

 NO OUTPUT CONTROL FOR STRESS PERIOD    2   TIME STEP 4832
 
 SOLVING FOR HEAD 

 NO OUTPUT CONTROL FOR STRESS PERIOD    2   TIME STEP 4833
 
 SOLVING FOR HEAD 

 NO OUTPUT CONTROL FOR STRESS PERIOD    2   TIME STEP 4834
 
 SOLVING FOR HEAD 

 NO OUTPUT CONTROL FOR STRESS PERIOD    2   TIME STEP 4835
 
 SOLVING FOR HEAD 

 NO OUTPUT CONTROL FOR STRESS PERIOD    2   TIME STEP 4836
 
 SOLVING FOR HEAD 

 NO OUTPUT CONTROL FOR STRESS PERIOD    2   TIME STEP 4837
 
 SOLVING FOR HEAD 

 NO OUTPUT CONTROL FOR STRESS PERIOD    2   TIME STEP 4838
 
 SOLVING FOR HEAD 

 NO OUTPUT CONTROL FOR STRESS PERIOD    2   TIME STEP 4839
 
 SOLVING FOR HEAD 

 NO OUTPUT CONTROL FOR STRESS PERIOD    2   TIME STEP 4840
 
 SOLVING FOR HEAD 

 NO OUTPUT CONTROL FOR STRESS PERIOD    2   TIME STEP 4841
 
 SOLVING FOR HEAD 

 NO OUTPUT CONTROL FOR STRESS PERIOD    2   TIME STEP 4842
 
 SOLVING FOR HEAD 

 NO OUTPUT CONTROL FOR STRESS PERIOD    2   TIME STEP 4843
 
 SOLVING FOR HEAD 

 NO OUTPUT CONTROL FOR STRESS PERIOD    2   TIME STEP 4844
 
 SOLVING FOR HEAD 

 NO OUTPUT CONTROL FOR STRESS PERIOD    2   TIME STEP 4845
 
 SOLVING FOR HEAD 

 NO OUTPUT CONTROL FOR STRESS PERIOD    2   TIME STEP 4846
 
 SOLVING FOR HEAD 

 NO OUTPUT CONTROL FOR STRESS PERIOD    2   TIME STEP 4847
 
 SOLVING FOR HEAD 

 NO OUTPUT CONTROL FOR STRESS PERIOD    2   TIME STEP 4848
 
 SOLVING FOR HEAD 

 NO OUTPUT CONTROL FOR STRESS PERIOD    2   TIME STEP 4849
 
 SOLVING FOR HEAD 

 NO OUTPUT CONTROL FOR STRESS PERIOD    2   TIME STEP 4850
 
 SOLVING FOR HEAD 

 NO OUTPUT CONTROL FOR STRESS PERIOD    2   TIME STEP 4851
 
 SOLVING FOR HEAD 

 NO OUTPUT CONTROL FOR STRESS PERIOD    2   TIME STEP 4852
 
 SOLVING FOR HEAD 

 NO OUTPUT CONTROL FOR STRESS PERIOD    2   TIME STEP 4853
 
 SOLVING FOR HEAD 

 NO OUTPUT CONTROL FOR STRESS PERIOD    2   TIME STEP 4854
 
 SOLVING FOR HEAD 

 NO OUTPUT CONTROL FOR STRESS PERIOD    2   TIME STEP 4855
 
 SOLVING FOR HEAD 

 NO OUTPUT CONTROL FOR STRESS PERIOD    2   TIME STEP 4856
 
 SOLVING FOR HEAD 

 NO OUTPUT CONTROL FOR STRESS PERIOD    2   TIME STEP 4857
 
 SOLVING FOR HEAD 

 NO OUTPUT CONTROL FOR STRESS PERIOD    2   TIME STEP 4858
 
 SOLVING FOR HEAD 

 NO OUTPUT CONTROL FOR STRESS PERIOD    2   TIME STEP 4859
 
 SOLVING FOR HEAD 

 NO OUTPUT CONTROL FOR STRESS PERIOD    2   TIME STEP 4860
 
 SOLVING FOR HEAD 

 NO OUTPUT CONTROL FOR STRESS PERIOD    2   TIME STEP 4861
 
 SOLVING FOR HEAD 

 NO OUTPUT CONTROL FOR STRESS PERIOD    2   TIME STEP 4862
 
 SOLVING FOR HEAD 

 NO OUTPUT CONTROL FOR STRESS PERIOD    2   TIME STEP 4863
 
 SOLVING FOR HEAD 

 NO OUTPUT CONTROL FOR STRESS PERIOD    2   TIME STEP 4864
 
 SOLVING FOR HEAD 

 NO OUTPUT CONTROL FOR STRESS PERIOD    2   TIME STEP 4865
 
 SOLVING FOR HEAD 

 NO OUTPUT CONTROL FOR STRESS PERIOD    2   TIME STEP 4866
 
 SOLVING FOR HEAD 

 NO OUTPUT CONTROL FOR STRESS PERIOD    2   TIME STEP 4867
 
 SOLVING FOR HEAD 

 NO OUTPUT CONTROL FOR STRESS PERIOD    2   TIME STEP 4868
 
 SOLVING FOR HEAD 

 NO OUTPUT CONTROL FOR STRESS PERIOD    2   TIME STEP 4869
 
 SOLVING FOR HEAD 

 NO OUTPUT CONTROL FOR STRESS PERIOD    2   TIME STEP 4870
 
 SOLVING FOR HEAD 

 NO OUTPUT CONTROL FOR STRESS PERIOD    2   TIME STEP 4871
 
 SOLVING FOR HEAD 

 NO OUTPUT CONTROL FOR STRESS PERIOD    2   TIME STEP 4872
 
 SOLVING FOR HEAD 

 NO OUTPUT CONTROL FOR STRESS PERIOD    2   TIME STEP 4873
 
 SOLVING FOR HEAD 

 NO OUTPUT CONTROL FOR STRESS PERIOD    2   TIME STEP 4874
 
 SOLVING FOR HEAD 

 NO OUTPUT CONTROL FOR STRESS PERIOD    2   TIME STEP 4875
 
 SOLVING FOR HEAD 

 NO OUTPUT CONTROL FOR STRESS PERIOD    2   TIME STEP 4876
 
 SOLVING FOR HEAD 

 NO OUTPUT CONTROL FOR STRESS PERIOD    2   TIME STEP 4877
 
 SOLVING FOR HEAD 

 NO OUTPUT CONTROL FOR STRESS PERIOD    2   TIME STEP 4878
 
 SOLVING FOR HEAD 

 NO OUTPUT CONTROL FOR STRESS PERIOD    2   TIME STEP 4879
 
 SOLVING FOR HEAD 

 NO OUTPUT CONTROL FOR STRESS PERIOD    2   TIME STEP 4880
 
 SOLVING FOR HEAD 

 NO OUTPUT CONTROL FOR STRESS PERIOD    2   TIME STEP 4881
 
 SOLVING FOR HEAD 

 NO OUTPUT CONTROL FOR STRESS PERIOD    2   TIME STEP 4882
 
 SOLVING FOR HEAD 

 NO OUTPUT CONTROL FOR STRESS PERIOD    2   TIME STEP 4883
 
 SOLVING FOR HEAD 

 NO OUTPUT CONTROL FOR STRESS PERIOD    2   TIME STEP 4884
 
 SOLVING FOR HEAD 

 NO OUTPUT CONTROL FOR STRESS PERIOD    2   TIME STEP 4885
 
 SOLVING FOR HEAD 

 NO OUTPUT CONTROL FOR STRESS PERIOD    2   TIME STEP 4886
 
 SOLVING FOR HEAD 

 NO OUTPUT CONTROL FOR STRESS PERIOD    2   TIME STEP 4887
 
 SOLVING FOR HEAD 

 NO OUTPUT CONTROL FOR STRESS PERIOD    2   TIME STEP 4888
 
 SOLVING FOR HEAD 

 NO OUTPUT CONTROL FOR STRESS PERIOD    2   TIME STEP 4889
 
 SOLVING FOR HEAD 

 NO OUTPUT CONTROL FOR STRESS PERIOD    2   TIME STEP 4890
 
 SOLVING FOR HEAD 

 NO OUTPUT CONTROL FOR STRESS PERIOD    2   TIME STEP 4891
 
 SOLVING FOR HEAD 

 NO OUTPUT CONTROL FOR STRESS PERIOD    2   TIME STEP 4892
 
 SOLVING FOR HEAD 

 NO OUTPUT CONTROL FOR STRESS PERIOD    2   TIME STEP 4893
 
 SOLVING FOR HEAD 

 NO OUTPUT CONTROL FOR STRESS PERIOD    2   TIME STEP 4894
 
 SOLVING FOR HEAD 

 NO OUTPUT CONTROL FOR STRESS PERIOD    2   TIME STEP 4895
 
 SOLVING FOR HEAD 

 NO OUTPUT CONTROL FOR STRESS PERIOD    2   TIME STEP 4896
 
 SOLVING FOR HEAD 

 NO OUTPUT CONTROL FOR STRESS PERIOD    2   TIME STEP 4897
 
 SOLVING FOR HEAD 

 NO OUTPUT CONTROL FOR STRESS PERIOD    2   TIME STEP 4898
 
 SOLVING FOR HEAD 

 NO OUTPUT CONTROL FOR STRESS PERIOD    2   TIME STEP 4899
 
 SOLVING FOR HEAD 

 NO OUTPUT CONTROL FOR STRESS PERIOD    2   TIME STEP 4900
 
 SOLVING FOR HEAD 

 NO OUTPUT CONTROL FOR STRESS PERIOD    2   TIME STEP 4901
 
 SOLVING FOR HEAD 

 NO OUTPUT CONTROL FOR STRESS PERIOD    2   TIME STEP 4902
 
 SOLVING FOR HEAD 

 NO OUTPUT CONTROL FOR STRESS PERIOD    2   TIME STEP 4903
 
 SOLVING FOR HEAD 

 NO OUTPUT CONTROL FOR STRESS PERIOD    2   TIME STEP 4904
 
 SOLVING FOR HEAD 

 NO OUTPUT CONTROL FOR STRESS PERIOD    2   TIME STEP 4905
 
 SOLVING FOR HEAD 

 NO OUTPUT CONTROL FOR STRESS PERIOD    2   TIME STEP 4906
 
 SOLVING FOR HEAD 

 NO OUTPUT CONTROL FOR STRESS PERIOD    2   TIME STEP 4907
 
 SOLVING FOR HEAD 

 NO OUTPUT CONTROL FOR STRESS PERIOD    2   TIME STEP 4908
 
 SOLVING FOR HEAD 

 NO OUTPUT CONTROL FOR STRESS PERIOD    2   TIME STEP 4909
 
 SOLVING FOR HEAD 

 NO OUTPUT CONTROL FOR STRESS PERIOD    2   TIME STEP 4910
 
 SOLVING FOR HEAD 

 NO OUTPUT CONTROL FOR STRESS PERIOD    2   TIME STEP 4911
 
 SOLVING FOR HEAD 

 NO OUTPUT CONTROL FOR STRESS PERIOD    2   TIME STEP 4912
 
 SOLVING FOR HEAD 

 NO OUTPUT CONTROL FOR STRESS PERIOD    2   TIME STEP 4913
 
 SOLVING FOR HEAD 

 NO OUTPUT CONTROL FOR STRESS PERIOD    2   TIME STEP 4914
 
 SOLVING FOR HEAD 

 NO OUTPUT CONTROL FOR STRESS PERIOD    2   TIME STEP 4915
 
 SOLVING FOR HEAD 

 NO OUTPUT CONTROL FOR STRESS PERIOD    2   TIME STEP 4916
 
 SOLVING FOR HEAD 

 NO OUTPUT CONTROL FOR STRESS PERIOD    2   TIME STEP 4917
 
 SOLVING FOR HEAD 

 NO OUTPUT CONTROL FOR STRESS PERIOD    2   TIME STEP 4918
 
 SOLVING FOR HEAD 

 NO OUTPUT CONTROL FOR STRESS PERIOD    2   TIME STEP 4919
 
 SOLVING FOR HEAD 

 NO OUTPUT CONTROL FOR STRESS PERIOD    2   TIME STEP 4920
 
 SOLVING FOR HEAD 

 NO OUTPUT CONTROL FOR STRESS PERIOD    2   TIME STEP 4921
 
 SOLVING FOR HEAD 

 NO OUTPUT CONTROL FOR STRESS PERIOD    2   TIME STEP 4922
 
 SOLVING FOR HEAD 

 NO OUTPUT CONTROL FOR STRESS PERIOD    2   TIME STEP 4923
 
 SOLVING FOR HEAD 

 NO OUTPUT CONTROL FOR STRESS PERIOD    2   TIME STEP 4924
 
 SOLVING FOR HEAD 

 NO OUTPUT CONTROL FOR STRESS PERIOD    2   TIME STEP 4925
 
 SOLVING FOR HEAD 

 NO OUTPUT CONTROL FOR STRESS PERIOD    2   TIME STEP 4926
 
 SOLVING FOR HEAD 

 NO OUTPUT CONTROL FOR STRESS PERIOD    2   TIME STEP 4927
 
 SOLVING FOR HEAD 

 NO OUTPUT CONTROL FOR STRESS PERIOD    2   TIME STEP 4928
 
 SOLVING FOR HEAD 

 NO OUTPUT CONTROL FOR STRESS PERIOD    2   TIME STEP 4929
 
 SOLVING FOR HEAD 

 NO OUTPUT CONTROL FOR STRESS PERIOD    2   TIME STEP 4930
 
 SOLVING FOR HEAD 

 NO OUTPUT CONTROL FOR STRESS PERIOD    2   TIME STEP 4931
 
 SOLVING FOR HEAD 

 NO OUTPUT CONTROL FOR STRESS PERIOD    2   TIME STEP 4932
 
 SOLVING FOR HEAD 

 NO OUTPUT CONTROL FOR STRESS PERIOD    2   TIME STEP 4933
 
 SOLVING FOR HEAD 

 NO OUTPUT CONTROL FOR STRESS PERIOD    2   TIME STEP 4934
 
 SOLVING FOR HEAD 

 NO OUTPUT CONTROL FOR STRESS PERIOD    2   TIME STEP 4935
 
 SOLVING FOR HEAD 

 NO OUTPUT CONTROL FOR STRESS PERIOD    2   TIME STEP 4936
 
 SOLVING FOR HEAD 

 NO OUTPUT CONTROL FOR STRESS PERIOD    2   TIME STEP 4937
 
 SOLVING FOR HEAD 

 NO OUTPUT CONTROL FOR STRESS PERIOD    2   TIME STEP 4938
 
 SOLVING FOR HEAD 

 NO OUTPUT CONTROL FOR STRESS PERIOD    2   TIME STEP 4939
 
 SOLVING FOR HEAD 

 NO OUTPUT CONTROL FOR STRESS PERIOD    2   TIME STEP 4940
 
 SOLVING FOR HEAD 

 NO OUTPUT CONTROL FOR STRESS PERIOD    2   TIME STEP 4941
 
 SOLVING FOR HEAD 

 NO OUTPUT CONTROL FOR STRESS PERIOD    2   TIME STEP 4942
 
 SOLVING FOR HEAD 

 NO OUTPUT CONTROL FOR STRESS PERIOD    2   TIME STEP 4943
 
 SOLVING FOR HEAD 

 NO OUTPUT CONTROL FOR STRESS PERIOD    2   TIME STEP 4944
 
 SOLVING FOR HEAD 

 NO OUTPUT CONTROL FOR STRESS PERIOD    2   TIME STEP 4945
 
 SOLVING FOR HEAD 

 NO OUTPUT CONTROL FOR STRESS PERIOD    2   TIME STEP 4946
 
 SOLVING FOR HEAD 

 NO OUTPUT CONTROL FOR STRESS PERIOD    2   TIME STEP 4947
 
 SOLVING FOR HEAD 

 NO OUTPUT CONTROL FOR STRESS PERIOD    2   TIME STEP 4948
 
 SOLVING FOR HEAD 

 NO OUTPUT CONTROL FOR STRESS PERIOD    2   TIME STEP 4949
 
 SOLVING FOR HEAD 

 NO OUTPUT CONTROL FOR STRESS PERIOD    2   TIME STEP 4950
 
 SOLVING FOR HEAD 

 NO OUTPUT CONTROL FOR STRESS PERIOD    2   TIME STEP 4951
 
 SOLVING FOR HEAD 

 NO OUTPUT CONTROL FOR STRESS PERIOD    2   TIME STEP 4952
 
 SOLVING FOR HEAD 

 NO OUTPUT CONTROL FOR STRESS PERIOD    2   TIME STEP 4953
 
 SOLVING FOR HEAD 

 NO OUTPUT CONTROL FOR STRESS PERIOD    2   TIME STEP 4954
 
 SOLVING FOR HEAD 

 NO OUTPUT CONTROL FOR STRESS PERIOD    2   TIME STEP 4955
 
 SOLVING FOR HEAD 

 NO OUTPUT CONTROL FOR STRESS PERIOD    2   TIME STEP 4956
 
 SOLVING FOR HEAD 

 NO OUTPUT CONTROL FOR STRESS PERIOD    2   TIME STEP 4957
 
 SOLVING FOR HEAD 

 NO OUTPUT CONTROL FOR STRESS PERIOD    2   TIME STEP 4958
 
 SOLVING FOR HEAD 

 NO OUTPUT CONTROL FOR STRESS PERIOD    2   TIME STEP 4959
 
 SOLVING FOR HEAD 

 NO OUTPUT CONTROL FOR STRESS PERIOD    2   TIME STEP 4960
 
 SOLVING FOR HEAD 

 NO OUTPUT CONTROL FOR STRESS PERIOD    2   TIME STEP 4961
 
 SOLVING FOR HEAD 

 NO OUTPUT CONTROL FOR STRESS PERIOD    2   TIME STEP 4962
 
 SOLVING FOR HEAD 

 NO OUTPUT CONTROL FOR STRESS PERIOD    2   TIME STEP 4963
 
 SOLVING FOR HEAD 

 NO OUTPUT CONTROL FOR STRESS PERIOD    2   TIME STEP 4964
 
 SOLVING FOR HEAD 

 NO OUTPUT CONTROL FOR STRESS PERIOD    2   TIME STEP 4965
 
 SOLVING FOR HEAD 

 NO OUTPUT CONTROL FOR STRESS PERIOD    2   TIME STEP 4966
 
 SOLVING FOR HEAD 

 NO OUTPUT CONTROL FOR STRESS PERIOD    2   TIME STEP 4967
 
 SOLVING FOR HEAD 

 NO OUTPUT CONTROL FOR STRESS PERIOD    2   TIME STEP 4968
 
 SOLVING FOR HEAD 

 NO OUTPUT CONTROL FOR STRESS PERIOD    2   TIME STEP 4969
 
 SOLVING FOR HEAD 

 NO OUTPUT CONTROL FOR STRESS PERIOD    2   TIME STEP 4970
 
 SOLVING FOR HEAD 

 NO OUTPUT CONTROL FOR STRESS PERIOD    2   TIME STEP 4971
 
 SOLVING FOR HEAD 

 NO OUTPUT CONTROL FOR STRESS PERIOD    2   TIME STEP 4972
 
 SOLVING FOR HEAD 

 NO OUTPUT CONTROL FOR STRESS PERIOD    2   TIME STEP 4973
 
 SOLVING FOR HEAD 

 NO OUTPUT CONTROL FOR STRESS PERIOD    2   TIME STEP 4974
 
 SOLVING FOR HEAD 

 NO OUTPUT CONTROL FOR STRESS PERIOD    2   TIME STEP 4975
 
 SOLVING FOR HEAD 

 NO OUTPUT CONTROL FOR STRESS PERIOD    2   TIME STEP 4976
 
 SOLVING FOR HEAD 

 NO OUTPUT CONTROL FOR STRESS PERIOD    2   TIME STEP 4977
 
 SOLVING FOR HEAD 

 NO OUTPUT CONTROL FOR STRESS PERIOD    2   TIME STEP 4978
 
 SOLVING FOR HEAD 

 NO OUTPUT CONTROL FOR STRESS PERIOD    2   TIME STEP 4979
 
 SOLVING FOR HEAD 

 NO OUTPUT CONTROL FOR STRESS PERIOD    2   TIME STEP 4980
 
 SOLVING FOR HEAD 

 NO OUTPUT CONTROL FOR STRESS PERIOD    2   TIME STEP 4981
 
 SOLVING FOR HEAD 

 NO OUTPUT CONTROL FOR STRESS PERIOD    2   TIME STEP 4982
 
 SOLVING FOR HEAD 

 NO OUTPUT CONTROL FOR STRESS PERIOD    2   TIME STEP 4983
 
 SOLVING FOR HEAD 

 NO OUTPUT CONTROL FOR STRESS PERIOD    2   TIME STEP 4984
 
 SOLVING FOR HEAD 

 NO OUTPUT CONTROL FOR STRESS PERIOD    2   TIME STEP 4985
 
 SOLVING FOR HEAD 

 NO OUTPUT CONTROL FOR STRESS PERIOD    2   TIME STEP 4986
 
 SOLVING FOR HEAD 

 NO OUTPUT CONTROL FOR STRESS PERIOD    2   TIME STEP 4987
 
 SOLVING FOR HEAD 

 NO OUTPUT CONTROL FOR STRESS PERIOD    2   TIME STEP 4988
 
 SOLVING FOR HEAD 

 NO OUTPUT CONTROL FOR STRESS PERIOD    2   TIME STEP 4989
 
 SOLVING FOR HEAD 

 NO OUTPUT CONTROL FOR STRESS PERIOD    2   TIME STEP 4990
 
 SOLVING FOR HEAD 

 NO OUTPUT CONTROL FOR STRESS PERIOD    2   TIME STEP 4991
 
 SOLVING FOR HEAD 

 NO OUTPUT CONTROL FOR STRESS PERIOD    2   TIME STEP 4992
 
 SOLVING FOR HEAD 

 NO OUTPUT CONTROL FOR STRESS PERIOD    2   TIME STEP 4993
 
 SOLVING FOR HEAD 

 NO OUTPUT CONTROL FOR STRESS PERIOD    2   TIME STEP 4994
 
 SOLVING FOR HEAD 

 NO OUTPUT CONTROL FOR STRESS PERIOD    2   TIME STEP 4995
 
 SOLVING FOR HEAD 

 NO OUTPUT CONTROL FOR STRESS PERIOD    2   TIME STEP 4996
 
 SOLVING FOR HEAD 

 NO OUTPUT CONTROL FOR STRESS PERIOD    2   TIME STEP 4997
 
 SOLVING FOR HEAD 

 NO OUTPUT CONTROL FOR STRESS PERIOD    2   TIME STEP 4998
 
 SOLVING FOR HEAD 

 NO OUTPUT CONTROL FOR STRESS PERIOD    2   TIME STEP 4999
 
 SOLVING FOR HEAD 

 NO OUTPUT CONTROL FOR STRESS PERIOD    2   TIME STEP 5000
 
 SOLVING FOR HEAD 

 NO OUTPUT CONTROL FOR STRESS PERIOD    2   TIME STEP 5001
 
 SOLVING FOR HEAD 

 NO OUTPUT CONTROL FOR STRESS PERIOD    2   TIME STEP 5002
 
 SOLVING FOR HEAD 

 NO OUTPUT CONTROL FOR STRESS PERIOD    2   TIME STEP 5003
 
 SOLVING FOR HEAD 

 NO OUTPUT CONTROL FOR STRESS PERIOD    2   TIME STEP 5004
 
 SOLVING FOR HEAD 

 NO OUTPUT CONTROL FOR STRESS PERIOD    2   TIME STEP 5005
 
 SOLVING FOR HEAD 

 NO OUTPUT CONTROL FOR STRESS PERIOD    2   TIME STEP 5006
 
 SOLVING FOR HEAD 

 NO OUTPUT CONTROL FOR STRESS PERIOD    2   TIME STEP 5007
 
 SOLVING FOR HEAD 

 NO OUTPUT CONTROL FOR STRESS PERIOD    2   TIME STEP 5008
 
 SOLVING FOR HEAD 

 NO OUTPUT CONTROL FOR STRESS PERIOD    2   TIME STEP 5009
 
 SOLVING FOR HEAD 

 NO OUTPUT CONTROL FOR STRESS PERIOD    2   TIME STEP 5010
 
 SOLVING FOR HEAD 

 NO OUTPUT CONTROL FOR STRESS PERIOD    2   TIME STEP 5011
 
 SOLVING FOR HEAD 

 NO OUTPUT CONTROL FOR STRESS PERIOD    2   TIME STEP 5012
 
 SOLVING FOR HEAD 

 NO OUTPUT CONTROL FOR STRESS PERIOD    2   TIME STEP 5013
 
 SOLVING FOR HEAD 

 NO OUTPUT CONTROL FOR STRESS PERIOD    2   TIME STEP 5014
 
 SOLVING FOR HEAD 

 NO OUTPUT CONTROL FOR STRESS PERIOD    2   TIME STEP 5015
 
 SOLVING FOR HEAD 

 NO OUTPUT CONTROL FOR STRESS PERIOD    2   TIME STEP 5016
 
 SOLVING FOR HEAD 

 NO OUTPUT CONTROL FOR STRESS PERIOD    2   TIME STEP 5017
 
 SOLVING FOR HEAD 

 NO OUTPUT CONTROL FOR STRESS PERIOD    2   TIME STEP 5018
 
 SOLVING FOR HEAD 

 NO OUTPUT CONTROL FOR STRESS PERIOD    2   TIME STEP 5019
 
 SOLVING FOR HEAD 

 NO OUTPUT CONTROL FOR STRESS PERIOD    2   TIME STEP 5020
 
 SOLVING FOR HEAD 

 NO OUTPUT CONTROL FOR STRESS PERIOD    2   TIME STEP 5021
 
 SOLVING FOR HEAD 

 NO OUTPUT CONTROL FOR STRESS PERIOD    2   TIME STEP 5022
 
 SOLVING FOR HEAD 

 NO OUTPUT CONTROL FOR STRESS PERIOD    2   TIME STEP 5023
 
 SOLVING FOR HEAD 

 NO OUTPUT CONTROL FOR STRESS PERIOD    2   TIME STEP 5024
 
 SOLVING FOR HEAD 

 NO OUTPUT CONTROL FOR STRESS PERIOD    2   TIME STEP 5025
 
 SOLVING FOR HEAD 

 NO OUTPUT CONTROL FOR STRESS PERIOD    2   TIME STEP 5026
 
 SOLVING FOR HEAD 

 NO OUTPUT CONTROL FOR STRESS PERIOD    2   TIME STEP 5027
 
 SOLVING FOR HEAD 

 NO OUTPUT CONTROL FOR STRESS PERIOD    2   TIME STEP 5028
 
 SOLVING FOR HEAD 

 NO OUTPUT CONTROL FOR STRESS PERIOD    2   TIME STEP 5029
 
 SOLVING FOR HEAD 

 NO OUTPUT CONTROL FOR STRESS PERIOD    2   TIME STEP 5030
 
 SOLVING FOR HEAD 

 NO OUTPUT CONTROL FOR STRESS PERIOD    2   TIME STEP 5031
 
 SOLVING FOR HEAD 

 NO OUTPUT CONTROL FOR STRESS PERIOD    2   TIME STEP 5032
 
 SOLVING FOR HEAD 

 NO OUTPUT CONTROL FOR STRESS PERIOD    2   TIME STEP 5033
 
 SOLVING FOR HEAD 

 NO OUTPUT CONTROL FOR STRESS PERIOD    2   TIME STEP 5034
 
 SOLVING FOR HEAD 

 NO OUTPUT CONTROL FOR STRESS PERIOD    2   TIME STEP 5035
 
 SOLVING FOR HEAD 

 NO OUTPUT CONTROL FOR STRESS PERIOD    2   TIME STEP 5036
 
 SOLVING FOR HEAD 

 NO OUTPUT CONTROL FOR STRESS PERIOD    2   TIME STEP 5037
 
 SOLVING FOR HEAD 

 NO OUTPUT CONTROL FOR STRESS PERIOD    2   TIME STEP 5038
 
 SOLVING FOR HEAD 

 NO OUTPUT CONTROL FOR STRESS PERIOD    2   TIME STEP 5039
 
 SOLVING FOR HEAD 

 NO OUTPUT CONTROL FOR STRESS PERIOD    2   TIME STEP 5040
 
 SOLVING FOR HEAD 

 NO OUTPUT CONTROL FOR STRESS PERIOD    2   TIME STEP 5041
 
 SOLVING FOR HEAD 

 NO OUTPUT CONTROL FOR STRESS PERIOD    2   TIME STEP 5042
 
 SOLVING FOR HEAD 

 NO OUTPUT CONTROL FOR STRESS PERIOD    2   TIME STEP 5043
 
 SOLVING FOR HEAD 

 NO OUTPUT CONTROL FOR STRESS PERIOD    2   TIME STEP 5044
 
 SOLVING FOR HEAD 

 NO OUTPUT CONTROL FOR STRESS PERIOD    2   TIME STEP 5045
 
 SOLVING FOR HEAD 

 NO OUTPUT CONTROL FOR STRESS PERIOD    2   TIME STEP 5046
 
 SOLVING FOR HEAD 

 NO OUTPUT CONTROL FOR STRESS PERIOD    2   TIME STEP 5047
 
 SOLVING FOR HEAD 

 NO OUTPUT CONTROL FOR STRESS PERIOD    2   TIME STEP 5048
 
 SOLVING FOR HEAD 

 NO OUTPUT CONTROL FOR STRESS PERIOD    2   TIME STEP 5049
 
 SOLVING FOR HEAD 

 NO OUTPUT CONTROL FOR STRESS PERIOD    2   TIME STEP 5050
 
 SOLVING FOR HEAD 

 NO OUTPUT CONTROL FOR STRESS PERIOD    2   TIME STEP 5051
 
 SOLVING FOR HEAD 

 NO OUTPUT CONTROL FOR STRESS PERIOD    2   TIME STEP 5052
 
 SOLVING FOR HEAD 

 NO OUTPUT CONTROL FOR STRESS PERIOD    2   TIME STEP 5053
 
 SOLVING FOR HEAD 

 NO OUTPUT CONTROL FOR STRESS PERIOD    2   TIME STEP 5054
 
 SOLVING FOR HEAD 

 NO OUTPUT CONTROL FOR STRESS PERIOD    2   TIME STEP 5055
 
 SOLVING FOR HEAD 

 NO OUTPUT CONTROL FOR STRESS PERIOD    2   TIME STEP 5056
 
 SOLVING FOR HEAD 

 NO OUTPUT CONTROL FOR STRESS PERIOD    2   TIME STEP 5057
 
 SOLVING FOR HEAD 

 NO OUTPUT CONTROL FOR STRESS PERIOD    2   TIME STEP 5058
 
 SOLVING FOR HEAD 

 NO OUTPUT CONTROL FOR STRESS PERIOD    2   TIME STEP 5059
 
 SOLVING FOR HEAD 

 NO OUTPUT CONTROL FOR STRESS PERIOD    2   TIME STEP 5060
 
 SOLVING FOR HEAD 

 NO OUTPUT CONTROL FOR STRESS PERIOD    2   TIME STEP 5061
 
 SOLVING FOR HEAD 

 NO OUTPUT CONTROL FOR STRESS PERIOD    2   TIME STEP 5062
 
 SOLVING FOR HEAD 

 NO OUTPUT CONTROL FOR STRESS PERIOD    2   TIME STEP 5063
 
 SOLVING FOR HEAD 

 NO OUTPUT CONTROL FOR STRESS PERIOD    2   TIME STEP 5064
 
 SOLVING FOR HEAD 

 NO OUTPUT CONTROL FOR STRESS PERIOD    2   TIME STEP 5065
 
 SOLVING FOR HEAD 

 NO OUTPUT CONTROL FOR STRESS PERIOD    2   TIME STEP 5066
 
 SOLVING FOR HEAD 

 NO OUTPUT CONTROL FOR STRESS PERIOD    2   TIME STEP 5067
 
 SOLVING FOR HEAD 

 NO OUTPUT CONTROL FOR STRESS PERIOD    2   TIME STEP 5068
 
 SOLVING FOR HEAD 

 NO OUTPUT CONTROL FOR STRESS PERIOD    2   TIME STEP 5069
 
 SOLVING FOR HEAD 

 NO OUTPUT CONTROL FOR STRESS PERIOD    2   TIME STEP 5070
 
 SOLVING FOR HEAD 

 NO OUTPUT CONTROL FOR STRESS PERIOD    2   TIME STEP 5071
 
 SOLVING FOR HEAD 

 NO OUTPUT CONTROL FOR STRESS PERIOD    2   TIME STEP 5072
 
 SOLVING FOR HEAD 

 NO OUTPUT CONTROL FOR STRESS PERIOD    2   TIME STEP 5073
 
 SOLVING FOR HEAD 

 NO OUTPUT CONTROL FOR STRESS PERIOD    2   TIME STEP 5074
 
 SOLVING FOR HEAD 

 NO OUTPUT CONTROL FOR STRESS PERIOD    2   TIME STEP 5075
 
 SOLVING FOR HEAD 

 NO OUTPUT CONTROL FOR STRESS PERIOD    2   TIME STEP 5076
 
 SOLVING FOR HEAD 

 NO OUTPUT CONTROL FOR STRESS PERIOD    2   TIME STEP 5077
 
 SOLVING FOR HEAD 

 NO OUTPUT CONTROL FOR STRESS PERIOD    2   TIME STEP 5078
 
 SOLVING FOR HEAD 

 NO OUTPUT CONTROL FOR STRESS PERIOD    2   TIME STEP 5079
 
 SOLVING FOR HEAD 

 NO OUTPUT CONTROL FOR STRESS PERIOD    2   TIME STEP 5080
 
 SOLVING FOR HEAD 

 NO OUTPUT CONTROL FOR STRESS PERIOD    2   TIME STEP 5081
 
 SOLVING FOR HEAD 

 NO OUTPUT CONTROL FOR STRESS PERIOD    2   TIME STEP 5082
 
 SOLVING FOR HEAD 

 NO OUTPUT CONTROL FOR STRESS PERIOD    2   TIME STEP 5083
 
 SOLVING FOR HEAD 

 NO OUTPUT CONTROL FOR STRESS PERIOD    2   TIME STEP 5084
 
 SOLVING FOR HEAD 

 NO OUTPUT CONTROL FOR STRESS PERIOD    2   TIME STEP 5085
 
 SOLVING FOR HEAD 

 NO OUTPUT CONTROL FOR STRESS PERIOD    2   TIME STEP 5086
 
 SOLVING FOR HEAD 

 NO OUTPUT CONTROL FOR STRESS PERIOD    2   TIME STEP 5087
 
 SOLVING FOR HEAD 

 NO OUTPUT CONTROL FOR STRESS PERIOD    2   TIME STEP 5088
 
 SOLVING FOR HEAD 

 NO OUTPUT CONTROL FOR STRESS PERIOD    2   TIME STEP 5089
 
 SOLVING FOR HEAD 

 NO OUTPUT CONTROL FOR STRESS PERIOD    2   TIME STEP 5090
 
 SOLVING FOR HEAD 

 NO OUTPUT CONTROL FOR STRESS PERIOD    2   TIME STEP 5091
 
 SOLVING FOR HEAD 

 NO OUTPUT CONTROL FOR STRESS PERIOD    2   TIME STEP 5092
 
 SOLVING FOR HEAD 

 NO OUTPUT CONTROL FOR STRESS PERIOD    2   TIME STEP 5093
 
 SOLVING FOR HEAD 

 NO OUTPUT CONTROL FOR STRESS PERIOD    2   TIME STEP 5094
 
 SOLVING FOR HEAD 

 NO OUTPUT CONTROL FOR STRESS PERIOD    2   TIME STEP 5095
 
 SOLVING FOR HEAD 

 NO OUTPUT CONTROL FOR STRESS PERIOD    2   TIME STEP 5096
 
 SOLVING FOR HEAD 

 NO OUTPUT CONTROL FOR STRESS PERIOD    2   TIME STEP 5097
 
 SOLVING FOR HEAD 

 NO OUTPUT CONTROL FOR STRESS PERIOD    2   TIME STEP 5098
 
 SOLVING FOR HEAD 

 NO OUTPUT CONTROL FOR STRESS PERIOD    2   TIME STEP 5099
 
 SOLVING FOR HEAD 

 NO OUTPUT CONTROL FOR STRESS PERIOD    2   TIME STEP 5100
 
 SOLVING FOR HEAD 

 NO OUTPUT CONTROL FOR STRESS PERIOD    2   TIME STEP 5101
 
 SOLVING FOR HEAD 

 NO OUTPUT CONTROL FOR STRESS PERIOD    2   TIME STEP 5102
 
 SOLVING FOR HEAD 

 NO OUTPUT CONTROL FOR STRESS PERIOD    2   TIME STEP 5103
 
 SOLVING FOR HEAD 

 NO OUTPUT CONTROL FOR STRESS PERIOD    2   TIME STEP 5104
 
 SOLVING FOR HEAD 

 NO OUTPUT CONTROL FOR STRESS PERIOD    2   TIME STEP 5105
 
 SOLVING FOR HEAD 

 NO OUTPUT CONTROL FOR STRESS PERIOD    2   TIME STEP 5106
 
 SOLVING FOR HEAD 

 NO OUTPUT CONTROL FOR STRESS PERIOD    2   TIME STEP 5107
 
 SOLVING FOR HEAD 

 NO OUTPUT CONTROL FOR STRESS PERIOD    2   TIME STEP 5108
 
 SOLVING FOR HEAD 

 NO OUTPUT CONTROL FOR STRESS PERIOD    2   TIME STEP 5109
 
 SOLVING FOR HEAD 

 NO OUTPUT CONTROL FOR STRESS PERIOD    2   TIME STEP 5110
 
 SOLVING FOR HEAD 

 NO OUTPUT CONTROL FOR STRESS PERIOD    2   TIME STEP 5111
 
 SOLVING FOR HEAD 

 NO OUTPUT CONTROL FOR STRESS PERIOD    2   TIME STEP 5112
 
 SOLVING FOR HEAD 

 NO OUTPUT CONTROL FOR STRESS PERIOD    2   TIME STEP 5113
 
 SOLVING FOR HEAD 

 NO OUTPUT CONTROL FOR STRESS PERIOD    2   TIME STEP 5114
 
 SOLVING FOR HEAD 

 NO OUTPUT CONTROL FOR STRESS PERIOD    2   TIME STEP 5115
 
 SOLVING FOR HEAD 

 NO OUTPUT CONTROL FOR STRESS PERIOD    2   TIME STEP 5116
 
 SOLVING FOR HEAD 

 NO OUTPUT CONTROL FOR STRESS PERIOD    2   TIME STEP 5117
 
 SOLVING FOR HEAD 

 NO OUTPUT CONTROL FOR STRESS PERIOD    2   TIME STEP 5118
 
 SOLVING FOR HEAD 

 NO OUTPUT CONTROL FOR STRESS PERIOD    2   TIME STEP 5119
 
 SOLVING FOR HEAD 

 NO OUTPUT CONTROL FOR STRESS PERIOD    2   TIME STEP 5120
 
 SOLVING FOR HEAD 

 NO OUTPUT CONTROL FOR STRESS PERIOD    2   TIME STEP 5121
 
 SOLVING FOR HEAD 

 NO OUTPUT CONTROL FOR STRESS PERIOD    2   TIME STEP 5122
 
 SOLVING FOR HEAD 

 NO OUTPUT CONTROL FOR STRESS PERIOD    2   TIME STEP 5123
 
 SOLVING FOR HEAD 

 NO OUTPUT CONTROL FOR STRESS PERIOD    2   TIME STEP 5124
 
 SOLVING FOR HEAD 

 NO OUTPUT CONTROL FOR STRESS PERIOD    2   TIME STEP 5125
 
 SOLVING FOR HEAD 

 NO OUTPUT CONTROL FOR STRESS PERIOD    2   TIME STEP 5126
 
 SOLVING FOR HEAD 

 NO OUTPUT CONTROL FOR STRESS PERIOD    2   TIME STEP 5127
 
 SOLVING FOR HEAD 

 NO OUTPUT CONTROL FOR STRESS PERIOD    2   TIME STEP 5128
 
 SOLVING FOR HEAD 

 NO OUTPUT CONTROL FOR STRESS PERIOD    2   TIME STEP 5129
 
 SOLVING FOR HEAD 

 NO OUTPUT CONTROL FOR STRESS PERIOD    2   TIME STEP 5130
 
 SOLVING FOR HEAD 

 NO OUTPUT CONTROL FOR STRESS PERIOD    2   TIME STEP 5131
 
 SOLVING FOR HEAD 

 NO OUTPUT CONTROL FOR STRESS PERIOD    2   TIME STEP 5132
 
 SOLVING FOR HEAD 

 NO OUTPUT CONTROL FOR STRESS PERIOD    2   TIME STEP 5133
 
 SOLVING FOR HEAD 

 NO OUTPUT CONTROL FOR STRESS PERIOD    2   TIME STEP 5134
 
 SOLVING FOR HEAD 

 NO OUTPUT CONTROL FOR STRESS PERIOD    2   TIME STEP 5135
 
 SOLVING FOR HEAD 

 NO OUTPUT CONTROL FOR STRESS PERIOD    2   TIME STEP 5136
 
 SOLVING FOR HEAD 

 NO OUTPUT CONTROL FOR STRESS PERIOD    2   TIME STEP 5137
 
 SOLVING FOR HEAD 

 NO OUTPUT CONTROL FOR STRESS PERIOD    2   TIME STEP 5138
 
 SOLVING FOR HEAD 

 NO OUTPUT CONTROL FOR STRESS PERIOD    2   TIME STEP 5139
 
 SOLVING FOR HEAD 

 NO OUTPUT CONTROL FOR STRESS PERIOD    2   TIME STEP 5140
 
 SOLVING FOR HEAD 

 NO OUTPUT CONTROL FOR STRESS PERIOD    2   TIME STEP 5141
 
 SOLVING FOR HEAD 

 NO OUTPUT CONTROL FOR STRESS PERIOD    2   TIME STEP 5142
 
 SOLVING FOR HEAD 

 NO OUTPUT CONTROL FOR STRESS PERIOD    2   TIME STEP 5143
 
 SOLVING FOR HEAD 

 NO OUTPUT CONTROL FOR STRESS PERIOD    2   TIME STEP 5144
 
 SOLVING FOR HEAD 

 NO OUTPUT CONTROL FOR STRESS PERIOD    2   TIME STEP 5145
 
 SOLVING FOR HEAD 

 NO OUTPUT CONTROL FOR STRESS PERIOD    2   TIME STEP 5146
 
 SOLVING FOR HEAD 

 NO OUTPUT CONTROL FOR STRESS PERIOD    2   TIME STEP 5147
 
 SOLVING FOR HEAD 

 NO OUTPUT CONTROL FOR STRESS PERIOD    2   TIME STEP 5148
 
 SOLVING FOR HEAD 

 NO OUTPUT CONTROL FOR STRESS PERIOD    2   TIME STEP 5149
 
 SOLVING FOR HEAD 

 NO OUTPUT CONTROL FOR STRESS PERIOD    2   TIME STEP 5150
 
 SOLVING FOR HEAD 

 NO OUTPUT CONTROL FOR STRESS PERIOD    2   TIME STEP 5151
 
 SOLVING FOR HEAD 

 NO OUTPUT CONTROL FOR STRESS PERIOD    2   TIME STEP 5152
 
 SOLVING FOR HEAD 

 NO OUTPUT CONTROL FOR STRESS PERIOD    2   TIME STEP 5153
 
 SOLVING FOR HEAD 

 NO OUTPUT CONTROL FOR STRESS PERIOD    2   TIME STEP 5154
 
 SOLVING FOR HEAD 

 NO OUTPUT CONTROL FOR STRESS PERIOD    2   TIME STEP 5155
 
 SOLVING FOR HEAD 

 NO OUTPUT CONTROL FOR STRESS PERIOD    2   TIME STEP 5156
 
 SOLVING FOR HEAD 

 NO OUTPUT CONTROL FOR STRESS PERIOD    2   TIME STEP 5157
 
 SOLVING FOR HEAD 

 NO OUTPUT CONTROL FOR STRESS PERIOD    2   TIME STEP 5158
 
 SOLVING FOR HEAD 

 NO OUTPUT CONTROL FOR STRESS PERIOD    2   TIME STEP 5159
 
 SOLVING FOR HEAD 

 NO OUTPUT CONTROL FOR STRESS PERIOD    2   TIME STEP 5160
 
 SOLVING FOR HEAD 

 NO OUTPUT CONTROL FOR STRESS PERIOD    2   TIME STEP 5161
 
 SOLVING FOR HEAD 

 NO OUTPUT CONTROL FOR STRESS PERIOD    2   TIME STEP 5162
 
 SOLVING FOR HEAD 

 NO OUTPUT CONTROL FOR STRESS PERIOD    2   TIME STEP 5163
 
 SOLVING FOR HEAD 

 NO OUTPUT CONTROL FOR STRESS PERIOD    2   TIME STEP 5164
 
 SOLVING FOR HEAD 

 NO OUTPUT CONTROL FOR STRESS PERIOD    2   TIME STEP 5165
 
 SOLVING FOR HEAD 

 NO OUTPUT CONTROL FOR STRESS PERIOD    2   TIME STEP 5166
 
 SOLVING FOR HEAD 

 NO OUTPUT CONTROL FOR STRESS PERIOD    2   TIME STEP 5167
 
 SOLVING FOR HEAD 

 NO OUTPUT CONTROL FOR STRESS PERIOD    2   TIME STEP 5168
 
 SOLVING FOR HEAD 

 NO OUTPUT CONTROL FOR STRESS PERIOD    2   TIME STEP 5169
 
 SOLVING FOR HEAD 

 NO OUTPUT CONTROL FOR STRESS PERIOD    2   TIME STEP 5170
 
 SOLVING FOR HEAD 

 NO OUTPUT CONTROL FOR STRESS PERIOD    2   TIME STEP 5171
 
 SOLVING FOR HEAD 

 NO OUTPUT CONTROL FOR STRESS PERIOD    2   TIME STEP 5172
 
 SOLVING FOR HEAD 

 NO OUTPUT CONTROL FOR STRESS PERIOD    2   TIME STEP 5173
 
 SOLVING FOR HEAD 

 NO OUTPUT CONTROL FOR STRESS PERIOD    2   TIME STEP 5174
 
 SOLVING FOR HEAD 

 NO OUTPUT CONTROL FOR STRESS PERIOD    2   TIME STEP 5175
 
 SOLVING FOR HEAD 

 NO OUTPUT CONTROL FOR STRESS PERIOD    2   TIME STEP 5176
 
 SOLVING FOR HEAD 

 NO OUTPUT CONTROL FOR STRESS PERIOD    2   TIME STEP 5177
 
 SOLVING FOR HEAD 

 NO OUTPUT CONTROL FOR STRESS PERIOD    2   TIME STEP 5178
 
 SOLVING FOR HEAD 

 NO OUTPUT CONTROL FOR STRESS PERIOD    2   TIME STEP 5179
 
 SOLVING FOR HEAD 

 NO OUTPUT CONTROL FOR STRESS PERIOD    2   TIME STEP 5180
 
 SOLVING FOR HEAD 

 NO OUTPUT CONTROL FOR STRESS PERIOD    2   TIME STEP 5181
 
 SOLVING FOR HEAD 

 NO OUTPUT CONTROL FOR STRESS PERIOD    2   TIME STEP 5182
 
 SOLVING FOR HEAD 

 NO OUTPUT CONTROL FOR STRESS PERIOD    2   TIME STEP 5183
 
 SOLVING FOR HEAD 

 NO OUTPUT CONTROL FOR STRESS PERIOD    2   TIME STEP 5184
 
 SOLVING FOR HEAD 

 NO OUTPUT CONTROL FOR STRESS PERIOD    2   TIME STEP 5185
 
 SOLVING FOR HEAD 

 NO OUTPUT CONTROL FOR STRESS PERIOD    2   TIME STEP 5186
 
 SOLVING FOR HEAD 

 NO OUTPUT CONTROL FOR STRESS PERIOD    2   TIME STEP 5187
 
 SOLVING FOR HEAD 

 NO OUTPUT CONTROL FOR STRESS PERIOD    2   TIME STEP 5188
 
 SOLVING FOR HEAD 

 NO OUTPUT CONTROL FOR STRESS PERIOD    2   TIME STEP 5189
 
 SOLVING FOR HEAD 

 NO OUTPUT CONTROL FOR STRESS PERIOD    2   TIME STEP 5190
 
 SOLVING FOR HEAD 

 NO OUTPUT CONTROL FOR STRESS PERIOD    2   TIME STEP 5191
 
 SOLVING FOR HEAD 

 NO OUTPUT CONTROL FOR STRESS PERIOD    2   TIME STEP 5192
 
 SOLVING FOR HEAD 

 NO OUTPUT CONTROL FOR STRESS PERIOD    2   TIME STEP 5193
 
 SOLVING FOR HEAD 

 NO OUTPUT CONTROL FOR STRESS PERIOD    2   TIME STEP 5194
 
 SOLVING FOR HEAD 

 NO OUTPUT CONTROL FOR STRESS PERIOD    2   TIME STEP 5195
 
 SOLVING FOR HEAD 

 NO OUTPUT CONTROL FOR STRESS PERIOD    2   TIME STEP 5196
 
 SOLVING FOR HEAD 

 NO OUTPUT CONTROL FOR STRESS PERIOD    2   TIME STEP 5197
 
 SOLVING FOR HEAD 

 NO OUTPUT CONTROL FOR STRESS PERIOD    2   TIME STEP 5198
 
 SOLVING FOR HEAD 

 NO OUTPUT CONTROL FOR STRESS PERIOD    2   TIME STEP 5199
 
 SOLVING FOR HEAD 

 NO OUTPUT CONTROL FOR STRESS PERIOD    2   TIME STEP 5200
 
 SOLVING FOR HEAD 

 NO OUTPUT CONTROL FOR STRESS PERIOD    2   TIME STEP 5201
 
 SOLVING FOR HEAD 

 NO OUTPUT CONTROL FOR STRESS PERIOD    2   TIME STEP 5202
 
 SOLVING FOR HEAD 

 NO OUTPUT CONTROL FOR STRESS PERIOD    2   TIME STEP 5203
 
 SOLVING FOR HEAD 

 NO OUTPUT CONTROL FOR STRESS PERIOD    2   TIME STEP 5204
 
 SOLVING FOR HEAD 

 NO OUTPUT CONTROL FOR STRESS PERIOD    2   TIME STEP 5205
 
 SOLVING FOR HEAD 

 NO OUTPUT CONTROL FOR STRESS PERIOD    2   TIME STEP 5206
 
 SOLVING FOR HEAD 

 NO OUTPUT CONTROL FOR STRESS PERIOD    2   TIME STEP 5207
 
 SOLVING FOR HEAD 

 NO OUTPUT CONTROL FOR STRESS PERIOD    2   TIME STEP 5208
 
 SOLVING FOR HEAD 

 NO OUTPUT CONTROL FOR STRESS PERIOD    2   TIME STEP 5209
 
 SOLVING FOR HEAD 

 NO OUTPUT CONTROL FOR STRESS PERIOD    2   TIME STEP 5210
 
 SOLVING FOR HEAD 

 NO OUTPUT CONTROL FOR STRESS PERIOD    2   TIME STEP 5211
 
 SOLVING FOR HEAD 

 NO OUTPUT CONTROL FOR STRESS PERIOD    2   TIME STEP 5212
 
 SOLVING FOR HEAD 

 NO OUTPUT CONTROL FOR STRESS PERIOD    2   TIME STEP 5213
 
 SOLVING FOR HEAD 

 NO OUTPUT CONTROL FOR STRESS PERIOD    2   TIME STEP 5214
 
 SOLVING FOR HEAD 

 NO OUTPUT CONTROL FOR STRESS PERIOD    2   TIME STEP 5215
 
 SOLVING FOR HEAD 

 NO OUTPUT CONTROL FOR STRESS PERIOD    2   TIME STEP 5216
 
 SOLVING FOR HEAD 

 NO OUTPUT CONTROL FOR STRESS PERIOD    2   TIME STEP 5217
 
 SOLVING FOR HEAD 

 NO OUTPUT CONTROL FOR STRESS PERIOD    2   TIME STEP 5218
 
 SOLVING FOR HEAD 

 NO OUTPUT CONTROL FOR STRESS PERIOD    2   TIME STEP 5219
 
 SOLVING FOR HEAD 

 NO OUTPUT CONTROL FOR STRESS PERIOD    2   TIME STEP 5220
 
 SOLVING FOR HEAD 

 NO OUTPUT CONTROL FOR STRESS PERIOD    2   TIME STEP 5221
 
 SOLVING FOR HEAD 

 NO OUTPUT CONTROL FOR STRESS PERIOD    2   TIME STEP 5222
 
 SOLVING FOR HEAD 

 NO OUTPUT CONTROL FOR STRESS PERIOD    2   TIME STEP 5223
 
 SOLVING FOR HEAD 

 NO OUTPUT CONTROL FOR STRESS PERIOD    2   TIME STEP 5224
 
 SOLVING FOR HEAD 

 NO OUTPUT CONTROL FOR STRESS PERIOD    2   TIME STEP 5225
 
 SOLVING FOR HEAD 

 NO OUTPUT CONTROL FOR STRESS PERIOD    2   TIME STEP 5226
 
 SOLVING FOR HEAD 

 NO OUTPUT CONTROL FOR STRESS PERIOD    2   TIME STEP 5227
 
 SOLVING FOR HEAD 

 NO OUTPUT CONTROL FOR STRESS PERIOD    2   TIME STEP 5228
 
 SOLVING FOR HEAD 

 NO OUTPUT CONTROL FOR STRESS PERIOD    2   TIME STEP 5229
 
 SOLVING FOR HEAD 

 NO OUTPUT CONTROL FOR STRESS PERIOD    2   TIME STEP 5230
 
 SOLVING FOR HEAD 

 NO OUTPUT CONTROL FOR STRESS PERIOD    2   TIME STEP 5231
 
 SOLVING FOR HEAD 

 NO OUTPUT CONTROL FOR STRESS PERIOD    2   TIME STEP 5232
 
 SOLVING FOR HEAD 

 NO OUTPUT CONTROL FOR STRESS PERIOD    2   TIME STEP 5233
 
 SOLVING FOR HEAD 

 NO OUTPUT CONTROL FOR STRESS PERIOD    2   TIME STEP 5234
 
 SOLVING FOR HEAD 

 NO OUTPUT CONTROL FOR STRESS PERIOD    2   TIME STEP 5235
 
 SOLVING FOR HEAD 

 NO OUTPUT CONTROL FOR STRESS PERIOD    2   TIME STEP 5236
 
 SOLVING FOR HEAD 

 NO OUTPUT CONTROL FOR STRESS PERIOD    2   TIME STEP 5237
 
 SOLVING FOR HEAD 

 NO OUTPUT CONTROL FOR STRESS PERIOD    2   TIME STEP 5238
 
 SOLVING FOR HEAD 

 NO OUTPUT CONTROL FOR STRESS PERIOD    2   TIME STEP 5239
 
 SOLVING FOR HEAD 

 NO OUTPUT CONTROL FOR STRESS PERIOD    2   TIME STEP 5240
 
 SOLVING FOR HEAD 

 NO OUTPUT CONTROL FOR STRESS PERIOD    2   TIME STEP 5241
 
 SOLVING FOR HEAD 

 NO OUTPUT CONTROL FOR STRESS PERIOD    2   TIME STEP 5242
 
 SOLVING FOR HEAD 

 NO OUTPUT CONTROL FOR STRESS PERIOD    2   TIME STEP 5243
 
 SOLVING FOR HEAD 

 NO OUTPUT CONTROL FOR STRESS PERIOD    2   TIME STEP 5244
 
 SOLVING FOR HEAD 

 NO OUTPUT CONTROL FOR STRESS PERIOD    2   TIME STEP 5245
 
 SOLVING FOR HEAD 

 NO OUTPUT CONTROL FOR STRESS PERIOD    2   TIME STEP 5246
 
 SOLVING FOR HEAD 

 NO OUTPUT CONTROL FOR STRESS PERIOD    2   TIME STEP 5247
 
 SOLVING FOR HEAD 

 NO OUTPUT CONTROL FOR STRESS PERIOD    2   TIME STEP 5248
 
 SOLVING FOR HEAD 

 NO OUTPUT CONTROL FOR STRESS PERIOD    2   TIME STEP 5249
 
 SOLVING FOR HEAD 

 NO OUTPUT CONTROL FOR STRESS PERIOD    2   TIME STEP 5250
 
 SOLVING FOR HEAD 

 NO OUTPUT CONTROL FOR STRESS PERIOD    2   TIME STEP 5251
 
 SOLVING FOR HEAD 

 NO OUTPUT CONTROL FOR STRESS PERIOD    2   TIME STEP 5252
 
 SOLVING FOR HEAD 

 NO OUTPUT CONTROL FOR STRESS PERIOD    2   TIME STEP 5253
 
 SOLVING FOR HEAD 

 NO OUTPUT CONTROL FOR STRESS PERIOD    2   TIME STEP 5254
 
 SOLVING FOR HEAD 

 NO OUTPUT CONTROL FOR STRESS PERIOD    2   TIME STEP 5255
 
 SOLVING FOR HEAD 

 NO OUTPUT CONTROL FOR STRESS PERIOD    2   TIME STEP 5256
 
 SOLVING FOR HEAD 

 NO OUTPUT CONTROL FOR STRESS PERIOD    2   TIME STEP 5257
 
 SOLVING FOR HEAD 

 NO OUTPUT CONTROL FOR STRESS PERIOD    2   TIME STEP 5258
 
 SOLVING FOR HEAD 

 NO OUTPUT CONTROL FOR STRESS PERIOD    2   TIME STEP 5259
 
 SOLVING FOR HEAD 

 NO OUTPUT CONTROL FOR STRESS PERIOD    2   TIME STEP 5260
 
 SOLVING FOR HEAD 

 NO OUTPUT CONTROL FOR STRESS PERIOD    2   TIME STEP 5261
 
 SOLVING FOR HEAD 

 NO OUTPUT CONTROL FOR STRESS PERIOD    2   TIME STEP 5262
 
 SOLVING FOR HEAD 

 NO OUTPUT CONTROL FOR STRESS PERIOD    2   TIME STEP 5263
 
 SOLVING FOR HEAD 

 NO OUTPUT CONTROL FOR STRESS PERIOD    2   TIME STEP 5264
 
 SOLVING FOR HEAD 

 NO OUTPUT CONTROL FOR STRESS PERIOD    2   TIME STEP 5265
 
 SOLVING FOR HEAD 

 NO OUTPUT CONTROL FOR STRESS PERIOD    2   TIME STEP 5266
 
 SOLVING FOR HEAD 

 NO OUTPUT CONTROL FOR STRESS PERIOD    2   TIME STEP 5267
 
 SOLVING FOR HEAD 

 NO OUTPUT CONTROL FOR STRESS PERIOD    2   TIME STEP 5268
 
 SOLVING FOR HEAD 

 NO OUTPUT CONTROL FOR STRESS PERIOD    2   TIME STEP 5269
 
 SOLVING FOR HEAD 

 NO OUTPUT CONTROL FOR STRESS PERIOD    2   TIME STEP 5270
 
 SOLVING FOR HEAD 

 NO OUTPUT CONTROL FOR STRESS PERIOD    2   TIME STEP 5271
 
 SOLVING FOR HEAD 

 NO OUTPUT CONTROL FOR STRESS PERIOD    2   TIME STEP 5272
 
 SOLVING FOR HEAD 

 NO OUTPUT CONTROL FOR STRESS PERIOD    2   TIME STEP 5273
 
 SOLVING FOR HEAD 

 NO OUTPUT CONTROL FOR STRESS PERIOD    2   TIME STEP 5274
 
 SOLVING FOR HEAD 

 NO OUTPUT CONTROL FOR STRESS PERIOD    2   TIME STEP 5275
 
 SOLVING FOR HEAD 

 NO OUTPUT CONTROL FOR STRESS PERIOD    2   TIME STEP 5276
 
 SOLVING FOR HEAD 

 NO OUTPUT CONTROL FOR STRESS PERIOD    2   TIME STEP 5277
 
 SOLVING FOR HEAD 

 NO OUTPUT CONTROL FOR STRESS PERIOD    2   TIME STEP 5278
 
 SOLVING FOR HEAD 

 NO OUTPUT CONTROL FOR STRESS PERIOD    2   TIME STEP 5279
 
 SOLVING FOR HEAD 

 NO OUTPUT CONTROL FOR STRESS PERIOD    2   TIME STEP 5280
 
 SOLVING FOR HEAD 

 NO OUTPUT CONTROL FOR STRESS PERIOD    2   TIME STEP 5281
 
 SOLVING FOR HEAD 

 NO OUTPUT CONTROL FOR STRESS PERIOD    2   TIME STEP 5282
 
 SOLVING FOR HEAD 

 NO OUTPUT CONTROL FOR STRESS PERIOD    2   TIME STEP 5283
 
 SOLVING FOR HEAD 

 NO OUTPUT CONTROL FOR STRESS PERIOD    2   TIME STEP 5284
 
 SOLVING FOR HEAD 

 NO OUTPUT CONTROL FOR STRESS PERIOD    2   TIME STEP 5285
 
 SOLVING FOR HEAD 

 NO OUTPUT CONTROL FOR STRESS PERIOD    2   TIME STEP 5286
 
 SOLVING FOR HEAD 

 NO OUTPUT CONTROL FOR STRESS PERIOD    2   TIME STEP 5287
 
 SOLVING FOR HEAD 

 NO OUTPUT CONTROL FOR STRESS PERIOD    2   TIME STEP 5288
 
 SOLVING FOR HEAD 

 NO OUTPUT CONTROL FOR STRESS PERIOD    2   TIME STEP 5289
 
 SOLVING FOR HEAD 

 NO OUTPUT CONTROL FOR STRESS PERIOD    2   TIME STEP 5290
 
 SOLVING FOR HEAD 

 NO OUTPUT CONTROL FOR STRESS PERIOD    2   TIME STEP 5291
 
 SOLVING FOR HEAD 

 NO OUTPUT CONTROL FOR STRESS PERIOD    2   TIME STEP 5292
 
 SOLVING FOR HEAD 

 NO OUTPUT CONTROL FOR STRESS PERIOD    2   TIME STEP 5293
 
 SOLVING FOR HEAD 

 NO OUTPUT CONTROL FOR STRESS PERIOD    2   TIME STEP 5294
 
 SOLVING FOR HEAD 

 NO OUTPUT CONTROL FOR STRESS PERIOD    2   TIME STEP 5295
 
 SOLVING FOR HEAD 

 NO OUTPUT CONTROL FOR STRESS PERIOD    2   TIME STEP 5296
 
 SOLVING FOR HEAD 

 NO OUTPUT CONTROL FOR STRESS PERIOD    2   TIME STEP 5297
 
 SOLVING FOR HEAD 

 NO OUTPUT CONTROL FOR STRESS PERIOD    2   TIME STEP 5298
 
 SOLVING FOR HEAD 

 NO OUTPUT CONTROL FOR STRESS PERIOD    2   TIME STEP 5299
 
 SOLVING FOR HEAD 

 NO OUTPUT CONTROL FOR STRESS PERIOD    2   TIME STEP 5300
 
 SOLVING FOR HEAD 

 NO OUTPUT CONTROL FOR STRESS PERIOD    2   TIME STEP 5301
 
 SOLVING FOR HEAD 

 NO OUTPUT CONTROL FOR STRESS PERIOD    2   TIME STEP 5302
 
 SOLVING FOR HEAD 

 NO OUTPUT CONTROL FOR STRESS PERIOD    2   TIME STEP 5303
 
 SOLVING FOR HEAD 

 NO OUTPUT CONTROL FOR STRESS PERIOD    2   TIME STEP 5304
 
 SOLVING FOR HEAD 

 NO OUTPUT CONTROL FOR STRESS PERIOD    2   TIME STEP 5305
 
 SOLVING FOR HEAD 

 NO OUTPUT CONTROL FOR STRESS PERIOD    2   TIME STEP 5306
 
 SOLVING FOR HEAD 

 NO OUTPUT CONTROL FOR STRESS PERIOD    2   TIME STEP 5307
 
 SOLVING FOR HEAD 

 NO OUTPUT CONTROL FOR STRESS PERIOD    2   TIME STEP 5308
 
 SOLVING FOR HEAD 

 NO OUTPUT CONTROL FOR STRESS PERIOD    2   TIME STEP 5309
 
 SOLVING FOR HEAD 

 NO OUTPUT CONTROL FOR STRESS PERIOD    2   TIME STEP 5310
 
 SOLVING FOR HEAD 

 NO OUTPUT CONTROL FOR STRESS PERIOD    2   TIME STEP 5311
 
 SOLVING FOR HEAD 

 NO OUTPUT CONTROL FOR STRESS PERIOD    2   TIME STEP 5312
 
 SOLVING FOR HEAD 

 NO OUTPUT CONTROL FOR STRESS PERIOD    2   TIME STEP 5313
 
 SOLVING FOR HEAD 

 NO OUTPUT CONTROL FOR STRESS PERIOD    2   TIME STEP 5314
 
 SOLVING FOR HEAD 

 NO OUTPUT CONTROL FOR STRESS PERIOD    2   TIME STEP 5315
 
 SOLVING FOR HEAD 

 NO OUTPUT CONTROL FOR STRESS PERIOD    2   TIME STEP 5316
 
 SOLVING FOR HEAD 

 NO OUTPUT CONTROL FOR STRESS PERIOD    2   TIME STEP 5317
 
 SOLVING FOR HEAD 

 NO OUTPUT CONTROL FOR STRESS PERIOD    2   TIME STEP 5318
 
 SOLVING FOR HEAD 

 NO OUTPUT CONTROL FOR STRESS PERIOD    2   TIME STEP 5319
 
 SOLVING FOR HEAD 

 NO OUTPUT CONTROL FOR STRESS PERIOD    2   TIME STEP 5320
 
 SOLVING FOR HEAD 

 NO OUTPUT CONTROL FOR STRESS PERIOD    2   TIME STEP 5321
 
 SOLVING FOR HEAD 

 NO OUTPUT CONTROL FOR STRESS PERIOD    2   TIME STEP 5322
 
 SOLVING FOR HEAD 

 NO OUTPUT CONTROL FOR STRESS PERIOD    2   TIME STEP 5323
 
 SOLVING FOR HEAD 

 NO OUTPUT CONTROL FOR STRESS PERIOD    2   TIME STEP 5324
 
 SOLVING FOR HEAD 

 NO OUTPUT CONTROL FOR STRESS PERIOD    2   TIME STEP 5325
 
 SOLVING FOR HEAD 

 NO OUTPUT CONTROL FOR STRESS PERIOD    2   TIME STEP 5326
 
 SOLVING FOR HEAD 

 NO OUTPUT CONTROL FOR STRESS PERIOD    2   TIME STEP 5327
 
 SOLVING FOR HEAD 

 NO OUTPUT CONTROL FOR STRESS PERIOD    2   TIME STEP 5328
 
 SOLVING FOR HEAD 

 NO OUTPUT CONTROL FOR STRESS PERIOD    2   TIME STEP 5329
 
 SOLVING FOR HEAD 

 NO OUTPUT CONTROL FOR STRESS PERIOD    2   TIME STEP 5330
 
 SOLVING FOR HEAD 

 NO OUTPUT CONTROL FOR STRESS PERIOD    2   TIME STEP 5331
 
 SOLVING FOR HEAD 

 NO OUTPUT CONTROL FOR STRESS PERIOD    2   TIME STEP 5332
 
 SOLVING FOR HEAD 

 NO OUTPUT CONTROL FOR STRESS PERIOD    2   TIME STEP 5333
 
 SOLVING FOR HEAD 

 NO OUTPUT CONTROL FOR STRESS PERIOD    2   TIME STEP 5334
 
 SOLVING FOR HEAD 

 NO OUTPUT CONTROL FOR STRESS PERIOD    2   TIME STEP 5335
 
 SOLVING FOR HEAD 

 NO OUTPUT CONTROL FOR STRESS PERIOD    2   TIME STEP 5336
 
 SOLVING FOR HEAD 

 NO OUTPUT CONTROL FOR STRESS PERIOD    2   TIME STEP 5337
 
 SOLVING FOR HEAD 

 NO OUTPUT CONTROL FOR STRESS PERIOD    2   TIME STEP 5338
 
 SOLVING FOR HEAD 

 NO OUTPUT CONTROL FOR STRESS PERIOD    2   TIME STEP 5339
 
 SOLVING FOR HEAD 

 NO OUTPUT CONTROL FOR STRESS PERIOD    2   TIME STEP 5340
 
 SOLVING FOR HEAD 

 NO OUTPUT CONTROL FOR STRESS PERIOD    2   TIME STEP 5341
 
 SOLVING FOR HEAD 

 NO OUTPUT CONTROL FOR STRESS PERIOD    2   TIME STEP 5342
 
 SOLVING FOR HEAD 

 NO OUTPUT CONTROL FOR STRESS PERIOD    2   TIME STEP 5343
 
 SOLVING FOR HEAD 

 NO OUTPUT CONTROL FOR STRESS PERIOD    2   TIME STEP 5344
 
 SOLVING FOR HEAD 

 NO OUTPUT CONTROL FOR STRESS PERIOD    2   TIME STEP 5345
 
 SOLVING FOR HEAD 

 NO OUTPUT CONTROL FOR STRESS PERIOD    2   TIME STEP 5346
 
 SOLVING FOR HEAD 

 NO OUTPUT CONTROL FOR STRESS PERIOD    2   TIME STEP 5347
 
 SOLVING FOR HEAD 

 NO OUTPUT CONTROL FOR STRESS PERIOD    2   TIME STEP 5348
 
 SOLVING FOR HEAD 

 NO OUTPUT CONTROL FOR STRESS PERIOD    2   TIME STEP 5349
 
 SOLVING FOR HEAD 

 NO OUTPUT CONTROL FOR STRESS PERIOD    2   TIME STEP 5350
 
 SOLVING FOR HEAD 

 NO OUTPUT CONTROL FOR STRESS PERIOD    2   TIME STEP 5351
 
 SOLVING FOR HEAD 

 NO OUTPUT CONTROL FOR STRESS PERIOD    2   TIME STEP 5352
 
 SOLVING FOR HEAD 

 NO OUTPUT CONTROL FOR STRESS PERIOD    2   TIME STEP 5353
 
 SOLVING FOR HEAD 

 NO OUTPUT CONTROL FOR STRESS PERIOD    2   TIME STEP 5354
 
 SOLVING FOR HEAD 

 NO OUTPUT CONTROL FOR STRESS PERIOD    2   TIME STEP 5355
 
 SOLVING FOR HEAD 

 NO OUTPUT CONTROL FOR STRESS PERIOD    2   TIME STEP 5356
 
 SOLVING FOR HEAD 

 NO OUTPUT CONTROL FOR STRESS PERIOD    2   TIME STEP 5357
 
 SOLVING FOR HEAD 

 NO OUTPUT CONTROL FOR STRESS PERIOD    2   TIME STEP 5358
 
 SOLVING FOR HEAD 

 NO OUTPUT CONTROL FOR STRESS PERIOD    2   TIME STEP 5359
 
 SOLVING FOR HEAD 

 NO OUTPUT CONTROL FOR STRESS PERIOD    2   TIME STEP 5360
 
 SOLVING FOR HEAD 

 NO OUTPUT CONTROL FOR STRESS PERIOD    2   TIME STEP 5361
 
 SOLVING FOR HEAD 

 NO OUTPUT CONTROL FOR STRESS PERIOD    2   TIME STEP 5362
 
 SOLVING FOR HEAD 

 NO OUTPUT CONTROL FOR STRESS PERIOD    2   TIME STEP 5363
 
 SOLVING FOR HEAD 

 NO OUTPUT CONTROL FOR STRESS PERIOD    2   TIME STEP 5364
 
 SOLVING FOR HEAD 

 NO OUTPUT CONTROL FOR STRESS PERIOD    2   TIME STEP 5365
 
 SOLVING FOR HEAD 

 NO OUTPUT CONTROL FOR STRESS PERIOD    2   TIME STEP 5366
 
 SOLVING FOR HEAD 

 NO OUTPUT CONTROL FOR STRESS PERIOD    2   TIME STEP 5367
 
 SOLVING FOR HEAD 

 NO OUTPUT CONTROL FOR STRESS PERIOD    2   TIME STEP 5368
 
 SOLVING FOR HEAD 

 NO OUTPUT CONTROL FOR STRESS PERIOD    2   TIME STEP 5369
 
 SOLVING FOR HEAD 

 NO OUTPUT CONTROL FOR STRESS PERIOD    2   TIME STEP 5370
 
 SOLVING FOR HEAD 

 NO OUTPUT CONTROL FOR STRESS PERIOD    2   TIME STEP 5371
 
 SOLVING FOR HEAD 

 NO OUTPUT CONTROL FOR STRESS PERIOD    2   TIME STEP 5372
 
 SOLVING FOR HEAD 

 NO OUTPUT CONTROL FOR STRESS PERIOD    2   TIME STEP 5373
 
 SOLVING FOR HEAD 

 NO OUTPUT CONTROL FOR STRESS PERIOD    2   TIME STEP 5374
 
 SOLVING FOR HEAD 

 NO OUTPUT CONTROL FOR STRESS PERIOD    2   TIME STEP 5375
 
 SOLVING FOR HEAD 

 NO OUTPUT CONTROL FOR STRESS PERIOD    2   TIME STEP 5376
 
 SOLVING FOR HEAD 

 NO OUTPUT CONTROL FOR STRESS PERIOD    2   TIME STEP 5377
 
 SOLVING FOR HEAD 

 NO OUTPUT CONTROL FOR STRESS PERIOD    2   TIME STEP 5378
 
 SOLVING FOR HEAD 

 NO OUTPUT CONTROL FOR STRESS PERIOD    2   TIME STEP 5379
 
 SOLVING FOR HEAD 

 NO OUTPUT CONTROL FOR STRESS PERIOD    2   TIME STEP 5380
 
 SOLVING FOR HEAD 

 NO OUTPUT CONTROL FOR STRESS PERIOD    2   TIME STEP 5381
 
 SOLVING FOR HEAD 

 NO OUTPUT CONTROL FOR STRESS PERIOD    2   TIME STEP 5382
 
 SOLVING FOR HEAD 

 NO OUTPUT CONTROL FOR STRESS PERIOD    2   TIME STEP 5383
 
 SOLVING FOR HEAD 

 NO OUTPUT CONTROL FOR STRESS PERIOD    2   TIME STEP 5384
 
 SOLVING FOR HEAD 

 NO OUTPUT CONTROL FOR STRESS PERIOD    2   TIME STEP 5385
 
 SOLVING FOR HEAD 

 NO OUTPUT CONTROL FOR STRESS PERIOD    2   TIME STEP 5386
 
 SOLVING FOR HEAD 

 NO OUTPUT CONTROL FOR STRESS PERIOD    2   TIME STEP 5387
 
 SOLVING FOR HEAD 

 NO OUTPUT CONTROL FOR STRESS PERIOD    2   TIME STEP 5388
 
 SOLVING FOR HEAD 

 NO OUTPUT CONTROL FOR STRESS PERIOD    2   TIME STEP 5389
 
 SOLVING FOR HEAD 

 NO OUTPUT CONTROL FOR STRESS PERIOD    2   TIME STEP 5390
 
 SOLVING FOR HEAD 

 NO OUTPUT CONTROL FOR STRESS PERIOD    2   TIME STEP 5391
 
 SOLVING FOR HEAD 

 NO OUTPUT CONTROL FOR STRESS PERIOD    2   TIME STEP 5392
 
 SOLVING FOR HEAD 

 NO OUTPUT CONTROL FOR STRESS PERIOD    2   TIME STEP 5393
 
 SOLVING FOR HEAD 

 NO OUTPUT CONTROL FOR STRESS PERIOD    2   TIME STEP 5394
 
 SOLVING FOR HEAD 

 NO OUTPUT CONTROL FOR STRESS PERIOD    2   TIME STEP 5395
 
 SOLVING FOR HEAD 

 NO OUTPUT CONTROL FOR STRESS PERIOD    2   TIME STEP 5396
 
 SOLVING FOR HEAD 

 NO OUTPUT CONTROL FOR STRESS PERIOD    2   TIME STEP 5397
 
 SOLVING FOR HEAD 

 NO OUTPUT CONTROL FOR STRESS PERIOD    2   TIME STEP 5398
 
 SOLVING FOR HEAD 

 NO OUTPUT CONTROL FOR STRESS PERIOD    2   TIME STEP 5399
 
 SOLVING FOR HEAD 

 NO OUTPUT CONTROL FOR STRESS PERIOD    2   TIME STEP 5400
 
 SOLVING FOR HEAD 

 NO OUTPUT CONTROL FOR STRESS PERIOD    2   TIME STEP 5401
 
 SOLVING FOR HEAD 

 NO OUTPUT CONTROL FOR STRESS PERIOD    2   TIME STEP 5402
 
 SOLVING FOR HEAD 

 NO OUTPUT CONTROL FOR STRESS PERIOD    2   TIME STEP 5403
 
 SOLVING FOR HEAD 

 NO OUTPUT CONTROL FOR STRESS PERIOD    2   TIME STEP 5404
 
 SOLVING FOR HEAD 

 NO OUTPUT CONTROL FOR STRESS PERIOD    2   TIME STEP 5405
 
 SOLVING FOR HEAD 

 NO OUTPUT CONTROL FOR STRESS PERIOD    2   TIME STEP 5406
 
 SOLVING FOR HEAD 

 NO OUTPUT CONTROL FOR STRESS PERIOD    2   TIME STEP 5407
 
 SOLVING FOR HEAD 

 NO OUTPUT CONTROL FOR STRESS PERIOD    2   TIME STEP 5408
 
 SOLVING FOR HEAD 

 NO OUTPUT CONTROL FOR STRESS PERIOD    2   TIME STEP 5409
 
 SOLVING FOR HEAD 

 NO OUTPUT CONTROL FOR STRESS PERIOD    2   TIME STEP 5410
 
 SOLVING FOR HEAD 

 NO OUTPUT CONTROL FOR STRESS PERIOD    2   TIME STEP 5411
 
 SOLVING FOR HEAD 

 NO OUTPUT CONTROL FOR STRESS PERIOD    2   TIME STEP 5412
 
 SOLVING FOR HEAD 

 NO OUTPUT CONTROL FOR STRESS PERIOD    2   TIME STEP 5413
 
 SOLVING FOR HEAD 

 NO OUTPUT CONTROL FOR STRESS PERIOD    2   TIME STEP 5414
 
 SOLVING FOR HEAD 

 NO OUTPUT CONTROL FOR STRESS PERIOD    2   TIME STEP 5415
 
 SOLVING FOR HEAD 

 NO OUTPUT CONTROL FOR STRESS PERIOD    2   TIME STEP 5416
 
 SOLVING FOR HEAD 

 NO OUTPUT CONTROL FOR STRESS PERIOD    2   TIME STEP 5417
 
 SOLVING FOR HEAD 

 NO OUTPUT CONTROL FOR STRESS PERIOD    2   TIME STEP 5418
 
 SOLVING FOR HEAD 

 NO OUTPUT CONTROL FOR STRESS PERIOD    2   TIME STEP 5419
 
 SOLVING FOR HEAD 

 NO OUTPUT CONTROL FOR STRESS PERIOD    2   TIME STEP 5420
 
 SOLVING FOR HEAD 

 NO OUTPUT CONTROL FOR STRESS PERIOD    2   TIME STEP 5421
 
 SOLVING FOR HEAD 

 NO OUTPUT CONTROL FOR STRESS PERIOD    2   TIME STEP 5422
 
 SOLVING FOR HEAD 

 NO OUTPUT CONTROL FOR STRESS PERIOD    2   TIME STEP 5423
 
 SOLVING FOR HEAD 

 NO OUTPUT CONTROL FOR STRESS PERIOD    2   TIME STEP 5424
 
 SOLVING FOR HEAD 

 NO OUTPUT CONTROL FOR STRESS PERIOD    2   TIME STEP 5425
 
 SOLVING FOR HEAD 

 NO OUTPUT CONTROL FOR STRESS PERIOD    2   TIME STEP 5426
 
 SOLVING FOR HEAD 

 NO OUTPUT CONTROL FOR STRESS PERIOD    2   TIME STEP 5427
 
 SOLVING FOR HEAD 

 NO OUTPUT CONTROL FOR STRESS PERIOD    2   TIME STEP 5428
 
 SOLVING FOR HEAD 

 NO OUTPUT CONTROL FOR STRESS PERIOD    2   TIME STEP 5429
 
 SOLVING FOR HEAD 

 NO OUTPUT CONTROL FOR STRESS PERIOD    2   TIME STEP 5430
 
 SOLVING FOR HEAD 

 NO OUTPUT CONTROL FOR STRESS PERIOD    2   TIME STEP 5431
 
 SOLVING FOR HEAD 

 NO OUTPUT CONTROL FOR STRESS PERIOD    2   TIME STEP 5432
 
 SOLVING FOR HEAD 

 NO OUTPUT CONTROL FOR STRESS PERIOD    2   TIME STEP 5433
 
 SOLVING FOR HEAD 

 NO OUTPUT CONTROL FOR STRESS PERIOD    2   TIME STEP 5434
 
 SOLVING FOR HEAD 

 NO OUTPUT CONTROL FOR STRESS PERIOD    2   TIME STEP 5435
 
 SOLVING FOR HEAD 

 NO OUTPUT CONTROL FOR STRESS PERIOD    2   TIME STEP 5436
 
 SOLVING FOR HEAD 

 NO OUTPUT CONTROL FOR STRESS PERIOD    2   TIME STEP 5437
 
 SOLVING FOR HEAD 

 NO OUTPUT CONTROL FOR STRESS PERIOD    2   TIME STEP 5438
 
 SOLVING FOR HEAD 

 NO OUTPUT CONTROL FOR STRESS PERIOD    2   TIME STEP 5439
 
 SOLVING FOR HEAD 

 NO OUTPUT CONTROL FOR STRESS PERIOD    2   TIME STEP 5440
 
 SOLVING FOR HEAD 

 NO OUTPUT CONTROL FOR STRESS PERIOD    2   TIME STEP 5441
 
 SOLVING FOR HEAD 

 NO OUTPUT CONTROL FOR STRESS PERIOD    2   TIME STEP 5442
 
 SOLVING FOR HEAD 

 NO OUTPUT CONTROL FOR STRESS PERIOD    2   TIME STEP 5443
 
 SOLVING FOR HEAD 

 NO OUTPUT CONTROL FOR STRESS PERIOD    2   TIME STEP 5444
 
 SOLVING FOR HEAD 

 NO OUTPUT CONTROL FOR STRESS PERIOD    2   TIME STEP 5445
 
 SOLVING FOR HEAD 

 NO OUTPUT CONTROL FOR STRESS PERIOD    2   TIME STEP 5446
 
 SOLVING FOR HEAD 

 NO OUTPUT CONTROL FOR STRESS PERIOD    2   TIME STEP 5447
 
 SOLVING FOR HEAD 

 NO OUTPUT CONTROL FOR STRESS PERIOD    2   TIME STEP 5448
 
 SOLVING FOR HEAD 

 NO OUTPUT CONTROL FOR STRESS PERIOD    2   TIME STEP 5449
 
 SOLVING FOR HEAD 

 NO OUTPUT CONTROL FOR STRESS PERIOD    2   TIME STEP 5450
 
 SOLVING FOR HEAD 

 NO OUTPUT CONTROL FOR STRESS PERIOD    2   TIME STEP 5451
 
 SOLVING FOR HEAD 

 NO OUTPUT CONTROL FOR STRESS PERIOD    2   TIME STEP 5452
 
 SOLVING FOR HEAD 

 NO OUTPUT CONTROL FOR STRESS PERIOD    2   TIME STEP 5453
 
 SOLVING FOR HEAD 

 NO OUTPUT CONTROL FOR STRESS PERIOD    2   TIME STEP 5454
 
 SOLVING FOR HEAD 

 NO OUTPUT CONTROL FOR STRESS PERIOD    2   TIME STEP 5455
 
 SOLVING FOR HEAD 

 NO OUTPUT CONTROL FOR STRESS PERIOD    2   TIME STEP 5456
 
 SOLVING FOR HEAD 

 NO OUTPUT CONTROL FOR STRESS PERIOD    2   TIME STEP 5457
 
 SOLVING FOR HEAD 

 NO OUTPUT CONTROL FOR STRESS PERIOD    2   TIME STEP 5458
 
 SOLVING FOR HEAD 

 NO OUTPUT CONTROL FOR STRESS PERIOD    2   TIME STEP 5459
 
 SOLVING FOR HEAD 

 NO OUTPUT CONTROL FOR STRESS PERIOD    2   TIME STEP 5460
 
 SOLVING FOR HEAD 

 NO OUTPUT CONTROL FOR STRESS PERIOD    2   TIME STEP 5461
 
 SOLVING FOR HEAD 

 NO OUTPUT CONTROL FOR STRESS PERIOD    2   TIME STEP 5462
 
 SOLVING FOR HEAD 

 NO OUTPUT CONTROL FOR STRESS PERIOD    2   TIME STEP 5463
 
 SOLVING FOR HEAD 

 NO OUTPUT CONTROL FOR STRESS PERIOD    2   TIME STEP 5464
 
 SOLVING FOR HEAD 

 NO OUTPUT CONTROL FOR STRESS PERIOD    2   TIME STEP 5465
 
 SOLVING FOR HEAD 

 NO OUTPUT CONTROL FOR STRESS PERIOD    2   TIME STEP 5466
 
 SOLVING FOR HEAD 

 NO OUTPUT CONTROL FOR STRESS PERIOD    2   TIME STEP 5467
 
 SOLVING FOR HEAD 

 NO OUTPUT CONTROL FOR STRESS PERIOD    2   TIME STEP 5468
 
 SOLVING FOR HEAD 

 NO OUTPUT CONTROL FOR STRESS PERIOD    2   TIME STEP 5469
 
 SOLVING FOR HEAD 

 NO OUTPUT CONTROL FOR STRESS PERIOD    2   TIME STEP 5470
 
 SOLVING FOR HEAD 

 NO OUTPUT CONTROL FOR STRESS PERIOD    2   TIME STEP 5471
 
 SOLVING FOR HEAD 

 NO OUTPUT CONTROL FOR STRESS PERIOD    2   TIME STEP 5472
 
 SOLVING FOR HEAD 

 NO OUTPUT CONTROL FOR STRESS PERIOD    2   TIME STEP 5473
 
 SOLVING FOR HEAD 

 NO OUTPUT CONTROL FOR STRESS PERIOD    2   TIME STEP 5474
 
 SOLVING FOR HEAD 

 NO OUTPUT CONTROL FOR STRESS PERIOD    2   TIME STEP 5475
 
 SOLVING FOR HEAD 

 NO OUTPUT CONTROL FOR STRESS PERIOD    2   TIME STEP 5476
 
 SOLVING FOR HEAD 

 NO OUTPUT CONTROL FOR STRESS PERIOD    2   TIME STEP 5477
 
 SOLVING FOR HEAD 

 OUTPUT CONTROL FOR STRESS PERIOD    2   TIME STEP 5478
    PRINT BUDGET



 STREAM LISTING     PERIOD      2   STEP     5478

 LAYER ROW COL. STREAM  RCH.   FLOW INTO    STREAM     FLOW OUT OF   OVRLND.    DIRECT     STREAM      STREAM      STREAM     STREAM  STREAMBED   FLOW TO   CHNG. UNSAT. 
                SEG.NO.  NO.   STRM. RCH.    LOSS       STRM. RCH.   RUNOFF     PRECIP       ET         HEAD        DEPTH      WIDTH  CONDCTNC.   WAT. TAB.

   1   39   15     1     1    0.0000E+00 -3.7950E+03   3.7950E+03  0.000E+00  0.000E+00  0.000E+00  2.35652E+03  1.963E-02  3.000E+00  1.530E+03  0.000E+00  0.000E+00
   1   39   16     1     2    3.7950E+03  3.5470E+02   3.4403E+03  0.000E+00  0.000E+00  0.000E+00  2.35253E+03  2.548E-02  3.000E+00  6.750E+02  0.000E+00  0.000E+00
   1   39   17     1     3    3.4403E+03 -4.2866E+02   3.8689E+03  0.000E+00  0.000E+00  0.000E+00  2.34552E+03  2.372E-02  3.000E+00  9.000E+02  0.000E+00  0.000E+00
   1   38   17     1     4    3.8689E+03 -6.6331E+02   4.5322E+03  0.000E+00  0.000E+00  0.000E+00  2.34253E+03  2.597E-02  3.000E+00  4.500E+02  0.000E+00  0.000E+00
   1   38   18     1     5    4.5322E+03 -7.1783E+02   5.2501E+03  0.000E+00  0.000E+00  0.000E+00  2.33653E+03  3.083E-02  3.000E+00  1.530E+03  0.000E+00  0.000E+00
   1   38   19     1     6    5.2501E+03  3.5847E+02   4.8916E+03  0.000E+00  0.000E+00  0.000E+00  2.33253E+03  3.106E-02  3.000E+00  6.750E+02  0.000E+00  0.000E+00
   1   38   20     1     7    4.8916E+03 -1.9833E+03   6.8749E+03  0.000E+00  0.000E+00  0.000E+00  2.32453E+03  3.090E-02  3.000E+00  1.350E+03  0.000E+00  0.000E+00
   1   38   21     1     8    6.8749E+03 -1.9766E+03   8.8515E+03  0.000E+00  0.000E+00  0.000E+00  2.31654E+03  3.584E-02  3.000E+00  1.350E+03  0.000E+00  0.000E+00
   1   38   22     1     9    8.8515E+03 -2.2385E+03   1.1090E+04  0.000E+00  0.000E+00  0.000E+00  2.30654E+03  3.694E-02  3.000E+00  1.530E+03  0.000E+00  0.000E+00
   1   38   23     1    10    1.1090E+04 -8.3478E+03   1.9438E+04  0.000E+00  0.000E+00  0.000E+00  2.28854E+03  4.389E-02  3.000E+00  1.530E+03  0.000E+00  0.000E+00
   1   37   24     1    11    1.9438E+04 -6.9008E+02   2.0128E+04  0.000E+00  0.000E+00  0.000E+00  2.26855E+03  4.897E-02  3.000E+00  1.530E+03  0.000E+00  0.000E+00
   1   37   25     1    12    2.0128E+04 -6.9600E+03   2.7088E+04  0.000E+00  0.000E+00  0.000E+00  2.24756E+03  5.554E-02  3.000E+00  1.080E+03  0.000E+00  0.000E+00
   1   36   25     1    13    2.7088E+04 -3.3470E+03   3.0435E+04  0.000E+00  0.000E+00  0.000E+00  2.24056E+03  6.226E-02  3.000E+00  4.500E+02  0.000E+00  0.000E+00
   1   36   26     1    14    3.0435E+04 -5.8665E+03   3.6301E+04  0.000E+00  0.000E+00  0.000E+00  2.22657E+03  6.806E-02  3.000E+00  1.080E+03  0.000E+00  0.000E+00
   1   35   26     1    15    3.6301E+04 -1.9885E+03   3.8290E+04  0.000E+00  0.000E+00  0.000E+00  2.21958E+03  8.101E-02  3.000E+00  4.500E+02  0.000E+00  0.000E+00
   1   35   27     1    16    3.8290E+04 -5.6409E+02   3.8854E+04  0.000E+00  0.000E+00  0.000E+00  2.21058E+03  8.215E-02  3.000E+00  1.350E+03  0.000E+00  0.000E+00
   1   36   28     1    17    3.8854E+04 -6.3485E+02   3.9489E+04  0.000E+00  0.000E+00  0.000E+00  2.19658E+03  8.506E-02  3.000E+00  1.530E+03  0.000E+00  0.000E+00
   1   36   29     1    18    3.9489E+04 -5.5753E+02   4.0046E+04  0.000E+00  0.000E+00  0.000E+00  2.18459E+03  8.702E-02  3.000E+00  1.350E+03  0.000E+00  0.000E+00
   1   36   30     1    19    4.0046E+04 -5.5513E+02   4.0602E+04  0.000E+00  0.000E+00  0.000E+00  2.17259E+03  8.879E-02  3.000E+00  1.350E+03  0.000E+00  0.000E+00
   1   36   31     1    20    4.0602E+04  4.4862E+02   4.0153E+04  0.000E+00  0.000E+00  0.000E+00  2.16159E+03  8.643E-02  3.000E+00  7.650E+02  0.000E+00  0.000E+00
   1   36   32     1    21    4.0153E+04 -1.8817E+02   4.0341E+04  0.000E+00  0.000E+00  0.000E+00  2.15058E+03  8.185E-02  3.000E+00  4.500E+02  0.000E+00  0.000E+00
   1   35   32     1    22    4.0341E+04 -4.7657E+03   4.5107E+04  0.000E+00  0.000E+00  0.000E+00  2.14259E+03  8.735E-02  3.000E+00  1.080E+03  0.000E+00  0.000E+00
   1   35   33     1    23    4.5107E+04 -1.8514E+02   4.5292E+04  0.000E+00  0.000E+00  0.000E+00  2.13559E+03  8.859E-02  3.000E+00  4.500E+02  0.000E+00  0.000E+00
   1   34   33     1    24    4.5292E+04 -3.6799E+03   4.8972E+04  0.000E+00  0.000E+00  0.000E+00  2.12659E+03  9.265E-02  3.000E+00  1.080E+03  0.000E+00  0.000E+00
   1   34   34     1    25    4.8972E+04 -1.7903E+02   4.9151E+04  0.000E+00  0.000E+00  0.000E+00  2.12060E+03  1.022E-01  3.000E+00  4.500E+02  0.000E+00  0.000E+00
   1   33   34     1    26    4.9151E+04 -3.5823E+02   4.9509E+04  0.000E+00  0.000E+00  0.000E+00  2.11560E+03  1.020E-01  3.000E+00  9.000E+02  0.000E+00  0.000E+00
   1   33   35     1    27    4.9509E+04 -4.2759E+02   4.9937E+04  0.000E+00  0.000E+00  0.000E+00  2.10760E+03  1.041E-01  3.000E+00  1.080E+03  0.000E+00  0.000E+00
   1   32   35     1    28    4.9937E+04 -6.2895E+02   5.0566E+04  0.000E+00  0.000E+00  0.000E+00  2.10260E+03  1.023E-01  3.000E+00  4.500E+02  0.000E+00  0.000E+00
   1   32   36     1    29    5.0566E+04 -5.9793E+02   5.1164E+04  0.000E+00  0.000E+00  0.000E+00  2.09361E+03  1.092E-01  3.000E+00  1.530E+03  0.000E+00  0.000E+00
   1   32   37     1    30    5.1164E+04 -5.1242E+02   5.1676E+04  0.000E+00  0.000E+00  0.000E+00  2.08662E+03  1.204E-01  3.000E+00  1.350E+03  0.000E+00  0.000E+00
   1   53   37     2     1    0.0000E+00 -6.6531E+02   6.6531E+02  0.000E+00  0.000E+00  0.000E+00  2.14751E+03  7.175E-03  3.000E+00  1.350E+03  0.000E+00  0.000E+00
   1   52   37     2     2    6.6531E+02  2.7507E+02   3.9024E+02  0.000E+00  0.000E+00  0.000E+00  2.14451E+03  9.389E-03  3.000E+00  5.400E+02  0.000E+00  0.000E+00
   1   52   38     2     3    3.9024E+02 -6.7054E+02   1.0608E+03  0.000E+00  0.000E+00  0.000E+00  2.14251E+03  9.908E-03  3.000E+00  4.500E+02  0.000E+00  0.000E+00
   1   51   38     2     4    1.0608E+03 -7.4063E+02   1.8014E+03  0.000E+00  0.000E+00  0.000E+00  2.13752E+03  1.593E-02  3.000E+00  1.530E+03  0.000E+00  0.000E+00
   1   50   38     2     5    1.8014E+03 -4.2833E+02   2.2297E+03  0.000E+00  0.000E+00  0.000E+00  2.13552E+03  2.408E-02  3.000E+00  9.000E+02  0.000E+00  0.000E+00
   1   50   39     2     6    2.2297E+03 -2.1381E+02   2.4436E+03  0.000E+00  0.000E+00  0.000E+00  2.13452E+03  2.486E-02  3.000E+00  4.500E+02  0.000E+00  0.000E+00
   1   49   39     2     7    2.4436E+03  3.5350E+02   2.0901E+03  0.000E+00  0.000E+00  0.000E+00  2.13252E+03  2.370E-02  3.000E+00  6.750E+02  0.000E+00  0.000E+00
   1   48   39     2     8    2.0901E+03  3.9942E+02   1.6906E+03  0.000E+00  0.000E+00  0.000E+00  2.12952E+03  2.212E-02  3.000E+00  7.650E+02  0.000E+00  0.000E+00
   1   47   39     2     9    1.6906E+03  2.3434E+02   1.4563E+03  0.000E+00  0.000E+00  0.000E+00  2.12752E+03  2.075E-02  3.000E+00  4.500E+02  0.000E+00  0.000E+00
   1   47   40     2    10    1.4563E+03 -6.6547E+02   2.1218E+03  0.000E+00  0.000E+00  0.000E+00  2.12652E+03  2.118E-02  3.000E+00  4.500E+02  0.000E+00  0.000E+00
   1   46   40     2    11    2.1218E+03 -6.4184E+02   2.7636E+03  0.000E+00  0.000E+00  0.000E+00  2.12452E+03  2.456E-02  3.000E+00  1.350E+03  0.000E+00  0.000E+00
   1   45   40     2    12    2.7636E+03 -6.6279E+02   3.4264E+03  0.000E+00  0.000E+00  0.000E+00  2.12253E+03  2.713E-02  3.000E+00  4.500E+02  0.000E+00  0.000E+00
   1   45   39     2    13    3.4264E+03 -1.3196E+03   4.7460E+03  0.000E+00  0.000E+00  0.000E+00  2.12053E+03  3.375E-02  3.000E+00  9.000E+02  0.000E+00  0.000E+00
   1   44   39     2    14    4.7460E+03  4.0863E+02   4.3374E+03  0.000E+00  0.000E+00  0.000E+00  2.11853E+03  3.415E-02  3.000E+00  7.650E+02  0.000E+00  0.000E+00
   1   43   38     2    15    4.3374E+03  4.0511E+02   3.9323E+03  0.000E+00  0.000E+00  0.000E+00  2.11353E+03  2.956E-02  3.000E+00  7.650E+02  0.000E+00  0.000E+00
   1   42   38     2    16    3.9323E+03 -6.3343E+02   4.5657E+03  0.000E+00  0.000E+00  0.000E+00  2.10853E+03  3.079E-02  3.000E+00  1.350E+03  0.000E+00  0.000E+00
   1   41   38     2    17    4.5657E+03 -7.0973E+02   5.2755E+03  0.000E+00  0.000E+00  0.000E+00  2.10454E+03  3.612E-02  3.000E+00  1.530E+03  0.000E+00  0.000E+00
   1   40   38     2    18    5.2755E+03 -2.1038E+02   5.4858E+03  0.000E+00  0.000E+00  0.000E+00  2.10253E+03  3.249E-02  3.000E+00  4.500E+02  0.000E+00  0.000E+00
   1   40   39     2    19    5.4858E+03 -4.9131E+03   1.0399E+04  0.000E+00  0.000E+00  0.000E+00  2.09754E+03  4.104E-02  3.000E+00  9.000E+02  0.000E+00  0.000E+00
   1   39   39     2    20    1.0399E+04  4.2181E+02   9.9771E+03  0.000E+00  0.000E+00  0.000E+00  2.09455E+03  5.139E-02  3.000E+00  7.650E+02  0.000E+00  0.000E+00
   1   38   39     2    21    9.9771E+03 -2.2204E+03   1.2197E+04  0.000E+00  0.000E+00  0.000E+00  2.08855E+03  4.879E-02  3.000E+00  1.530E+03  0.000E+00  0.000E+00
   1   37   40     2    22    1.2197E+04 -6.8723E+02   1.2885E+04  0.000E+00  0.000E+00  0.000E+00  2.08055E+03  5.083E-02  3.000E+00  1.530E+03  0.000E+00  0.000E+00
   1   36   40     2    23    1.2885E+04 -2.1981E+03   1.5083E+04  0.000E+00  0.000E+00  0.000E+00  2.07456E+03  5.763E-02  3.000E+00  9.000E+02  0.000E+00  0.000E+00
   1   36   41     2    24    1.5083E+04 -6.4460E+02   1.5727E+04  0.000E+00  0.000E+00  0.000E+00  2.07257E+03  6.756E-02  3.000E+00  4.500E+02  0.000E+00  0.000E+00
   1   35   41     2    25    1.5727E+04 -6.5263E+02   1.6380E+04  0.000E+00  0.000E+00  0.000E+00  2.06957E+03  7.344E-02  3.000E+00  1.530E+03  0.000E+00  0.000E+00
   1   34   41     2    26    1.6380E+04  3.8512E+02   1.5995E+04  0.000E+00  0.000E+00  0.000E+00  2.06657E+03  7.055E-02  3.000E+00  6.750E+02  0.000E+00  0.000E+00
   1   33   41     2    27    1.5995E+04  3.8292E+02   1.5612E+04  0.000E+00  0.000E+00  0.000E+00  2.06157E+03  6.729E-02  3.000E+00  6.750E+02  0.000E+00  0.000E+00
   1   32   41     2    28    1.5612E+04 -6.6509E+02   1.6277E+04  0.000E+00  0.000E+00  0.000E+00  2.05757E+03  6.530E-02  3.000E+00  1.530E+03  0.000E+00  0.000E+00
   1   31   42     2    29    1.6277E+04 -7.4660E+02   1.7024E+04  0.000E+00  0.000E+00  0.000E+00  2.04956E+03  6.339E-02  3.000E+00  1.710E+03  0.000E+00  0.000E+00
   1   31   33     3     1    0.0000E+00 -3.3536E+03   3.3536E+03  0.000E+00  0.000E+00  0.000E+00  2.11652E+03  1.585E-02  3.000E+00  1.350E+03  0.000E+00  0.000E+00
   1   31   34     3     2    3.3536E+03  3.5182E+02   3.0018E+03  0.000E+00  0.000E+00  0.000E+00  2.11052E+03  2.121E-02  3.000E+00  6.750E+02  0.000E+00  0.000E+00
   1   31   35     3     3    3.0018E+03 -7.3139E+02   3.7332E+03  0.000E+00  0.000E+00  0.000E+00  2.09952E+03  2.196E-02  3.000E+00  1.530E+03  0.000E+00  0.000E+00
   1   31   36     3     4    3.7332E+03 -2.2499E+03   5.9831E+03  0.000E+00  0.000E+00  0.000E+00  2.09253E+03  2.948E-02  3.000E+00  1.530E+03  0.000E+00  0.000E+00
   1   31   37     3     5    5.9831E+03 -6.2888E+02   6.6120E+03  0.000E+00  0.000E+00  0.000E+00  2.08553E+03  3.416E-02  3.000E+00  1.350E+03  0.000E+00  0.000E+00
   1   48   48     4     1    0.0000E+00 -2.0028E+03   2.0028E+03  0.000E+00  0.000E+00  0.000E+00  2.11352E+03  1.647E-02  3.000E+00  1.350E+03  0.000E+00  0.000E+00
   1   47   48     4     2    2.0028E+03 -7.2743E+02   2.7302E+03  0.000E+00  0.000E+00  0.000E+00  2.11152E+03  2.455E-02  3.000E+00  1.530E+03  0.000E+00  0.000E+00
   1   46   48     4     3    2.7302E+03 -6.6347E+02   3.3937E+03  0.000E+00  0.000E+00  0.000E+00  2.10953E+03  2.563E-02  3.000E+00  4.500E+02  0.000E+00  0.000E+00
   1   46   47     4     4    3.3937E+03 -1.3200E+03   4.7137E+03  0.000E+00  0.000E+00  0.000E+00  2.10753E+03  3.328E-02  3.000E+00  9.000E+02  0.000E+00  0.000E+00
   1   45   47     4     5    4.7137E+03  3.6247E+02   4.3512E+03  0.000E+00  0.000E+00  0.000E+00  2.10554E+03  3.699E-02  3.000E+00  6.750E+02  0.000E+00  0.000E+00
   1   44   47     4     6    4.3512E+03  4.0651E+02   3.9447E+03  0.000E+00  0.000E+00  0.000E+00  2.10253E+03  3.139E-02  3.000E+00  7.650E+02  0.000E+00  0.000E+00
   1   43   47     4     7    3.9447E+03 -1.9855E+03   5.9302E+03  0.000E+00  0.000E+00  0.000E+00  2.09753E+03  2.928E-02  3.000E+00  1.350E+03  0.000E+00  0.000E+00
   1   42   47     4     8    5.9302E+03 -3.3285E+03   9.2587E+03  0.000E+00  0.000E+00  0.000E+00  2.08853E+03  3.447E-02  3.000E+00  1.350E+03  0.000E+00  0.000E+00
   1   41   47     4     9    9.2587E+03 -1.3123E+03   1.0571E+04  0.000E+00  0.000E+00  0.000E+00  2.08054E+03  4.185E-02  3.000E+00  9.000E+02  0.000E+00  0.000E+00
   1   41   48     4    10    1.0571E+04 -1.1050E+03   1.1676E+04  0.000E+00  0.000E+00  0.000E+00  2.07754E+03  4.441E-02  3.000E+00  4.500E+02  0.000E+00  0.000E+00
   1   40   48     4    11    1.1676E+04 -6.1064E+02   1.2287E+04  0.000E+00  0.000E+00  0.000E+00  2.07055E+03  4.768E-02  3.000E+00  1.350E+03  0.000E+00  0.000E+00
   1   39   48     4    12    1.2287E+04 -4.6515E+03   1.6938E+04  0.000E+00  0.000E+00  0.000E+00  2.06455E+03  5.447E-02  3.000E+00  1.350E+03  0.000E+00  0.000E+00
   1   38   47     4    13    1.6938E+04  3.7594E+02   1.6562E+04  0.000E+00  0.000E+00  0.000E+00  2.05556E+03  5.695E-02  3.000E+00  6.750E+02  0.000E+00  0.000E+00
   1   37   47     4    14    1.6562E+04 -5.9967E+02   1.7162E+04  0.000E+00  0.000E+00  0.000E+00  2.04756E+03  5.580E-02  3.000E+00  1.350E+03  0.000E+00  0.000E+00
   1   36   48     4    15    1.7162E+04 -6.7525E+02   1.7837E+04  0.000E+00  0.000E+00  0.000E+00  2.03656E+03  5.866E-02  3.000E+00  1.530E+03  0.000E+00  0.000E+00
   1   35   48     4    16    1.7837E+04 -1.9708E+02   1.8034E+04  0.000E+00  0.000E+00  0.000E+00  2.03256E+03  6.205E-02  3.000E+00  4.500E+02  0.000E+00  0.000E+00
   1   35   49     4    17    1.8034E+04 -3.9690E+02   1.8431E+04  0.000E+00  0.000E+00  0.000E+00  2.02756E+03  5.900E-02  3.000E+00  9.000E+02  0.000E+00  0.000E+00
   1   34   49     4    18    1.8431E+04 -1.5491E+03   1.9980E+04  0.000E+00  0.000E+00  0.000E+00  2.02157E+03  6.564E-02  3.000E+00  1.080E+03  0.000E+00  0.000E+00
   1   34   50     4    19    1.9980E+04 -6.4158E+02   2.0622E+04  0.000E+00  0.000E+00  0.000E+00  2.01857E+03  7.427E-02  3.000E+00  4.500E+02  0.000E+00  0.000E+00
   1   33   50     4    20    2.0622E+04  4.9148E+02   2.0130E+04  0.000E+00  0.000E+00  0.000E+00  2.01457E+03  7.483E-02  3.000E+00  8.550E+02  0.000E+00  0.000E+00
   1   55   72     5     1    0.0000E+00 -3.3507E+03   3.3507E+03  0.000E+00  0.000E+00  0.000E+00  2.00152E+03  1.797E-02  3.000E+00  1.350E+03  0.000E+00  0.000E+00
   1   54   72     5     2    3.3507E+03 -6.3763E+02   3.9884E+03  0.000E+00  0.000E+00  0.000E+00  1.99753E+03  2.768E-02  3.000E+00  1.350E+03  0.000E+00  0.000E+00
   1   53   72     5     3    3.9884E+03  3.5442E+02   3.6340E+03  0.000E+00  0.000E+00  0.000E+00  1.99253E+03  2.507E-02  3.000E+00  6.750E+02  0.000E+00  0.000E+00
   1   52   72     5     4    3.6340E+03 -7.2569E+02   4.3596E+03  0.000E+00  0.000E+00  0.000E+00  1.98353E+03  2.569E-02  3.000E+00  1.530E+03  0.000E+00  0.000E+00
   1   51   72     5     5    4.3596E+03  4.0279E+02   3.9569E+03  0.000E+00  0.000E+00  0.000E+00  1.97753E+03  2.652E-02  3.000E+00  7.650E+02  0.000E+00  0.000E+00
   1   50   73     5     6    3.9569E+03 -7.2349E+02   4.6803E+03  0.000E+00  0.000E+00  0.000E+00  1.96853E+03  2.713E-02  3.000E+00  1.530E+03  0.000E+00  0.000E+00
   1   49   73     5     7    4.6803E+03 -7.1889E+02   5.3992E+03  0.000E+00  0.000E+00  0.000E+00  1.96253E+03  3.014E-02  3.000E+00  1.530E+03  0.000E+00  0.000E+00
   1   48   73     5     8    5.3992E+03 -2.1076E+02   5.6100E+03  0.000E+00  0.000E+00  0.000E+00  1.95653E+03  3.164E-02  3.000E+00  4.500E+02  0.000E+00  0.000E+00
   1   48   74     5     9    5.6100E+03 -2.2154E+03   7.8254E+03  0.000E+00  0.000E+00  0.000E+00  1.95454E+03  3.845E-02  3.000E+00  9.000E+02  0.000E+00  0.000E+00
   1   47   74     5    10    7.8254E+03 -7.0017E+02   8.5255E+03  0.000E+00  0.000E+00  0.000E+00  1.94954E+03  4.238E-02  3.000E+00  1.530E+03  0.000E+00  0.000E+00
   1   46   75     5    11    8.5255E+03  4.1752E+02   8.1080E+03  0.000E+00  0.000E+00  0.000E+00  1.94355E+03  4.578E-02  3.000E+00  7.650E+02  0.000E+00  0.000E+00
   1   45   75     5    12    8.1080E+03  1.2294E+02   7.9851E+03  0.000E+00  0.000E+00  0.000E+00  1.94155E+03  4.639E-02  3.000E+00  2.250E+02  0.000E+00  0.000E+00
   1   45   76     5    13    7.9851E+03  2.9371E+02   7.6914E+03  0.000E+00  0.000E+00  0.000E+00  1.93854E+03  4.391E-02  3.000E+00  5.400E+02  0.000E+00  0.000E+00
   1   44   76     5    14    7.6914E+03  1.2291E+02   7.5685E+03  0.000E+00  0.000E+00  0.000E+00  1.93655E+03  4.626E-02  3.000E+00  2.250E+02  0.000E+00  0.000E+00
   1   45   62     6     1    0.0000E+00 -2.0069E+03   2.0069E+03  0.000E+00  0.000E+00  0.000E+00  2.00451E+03  1.340E-02  3.000E+00  1.350E+03  0.000E+00  0.000E+00
   1   44   62     6     2    2.0069E+03 -7.3348E+02   2.7404E+03  0.000E+00  0.000E+00  0.000E+00  1.99952E+03  2.060E-02  3.000E+00  1.530E+03  0.000E+00  0.000E+00
   1   43   62     6     3    2.7404E+03  1.1696E+02   2.6234E+03  0.000E+00  0.000E+00  0.000E+00  1.99552E+03  1.984E-02  3.000E+00  2.250E+02  0.000E+00  0.000E+00
   1   43   63     6     4    2.6234E+03 -1.3290E+03   3.9524E+03  0.000E+00  0.000E+00  0.000E+00  1.99152E+03  2.333E-02  3.000E+00  9.000E+02  0.000E+00  0.000E+00
   1   42   63     6     5    3.9524E+03 -7.2245E+02   4.6749E+03  0.000E+00  0.000E+00  0.000E+00  1.98553E+03  2.781E-02  3.000E+00  1.530E+03  0.000E+00  0.000E+00
   1   41   63     6     6    4.6749E+03  3.5675E+02   4.3181E+03  0.000E+00  0.000E+00  0.000E+00  1.97953E+03  2.851E-02  3.000E+00  6.750E+02  0.000E+00  0.000E+00
   1   40   63     6     7    4.3181E+03 -7.2033E+02   5.0385E+03  0.000E+00  0.000E+00  0.000E+00  1.97353E+03  2.920E-02  3.000E+00  1.530E+03  0.000E+00  0.000E+00
   1   24   55     7     1    0.0000E+00 -2.2373E+03   2.2373E+03  0.000E+00  0.000E+00  0.000E+00  2.03351E+03  1.410E-02  3.000E+00  9.000E+02  0.000E+00  0.000E+00
   1   25   55     7     2    2.2373E+03  1.1649E+02   2.1208E+03  0.000E+00  0.000E+00  0.000E+00  2.03152E+03  1.772E-02  3.000E+00  2.250E+02  0.000E+00  0.000E+00
   1   25   56     7     3    2.1208E+03 -1.3310E+03   3.4518E+03  0.000E+00  0.000E+00  0.000E+00  2.02652E+03  2.112E-02  3.000E+00  9.000E+02  0.000E+00  0.000E+00
   1   26   56     7     4    3.4518E+03 -7.2193E+02   4.1737E+03  0.000E+00  0.000E+00  0.000E+00  2.02253E+03  2.815E-02  3.000E+00  1.530E+03  0.000E+00  0.000E+00
   1   27   56     7     5    4.1737E+03 -6.3379E+02   4.8075E+03  0.000E+00  0.000E+00  0.000E+00  2.01753E+03  3.053E-02  3.000E+00  1.350E+03  0.000E+00  0.000E+00
   1   28   57     7     6    4.8075E+03 -6.3088E+02   5.4384E+03  0.000E+00  0.000E+00  0.000E+00  2.01253E+03  3.268E-02  3.000E+00  1.350E+03  0.000E+00  0.000E+00
   1   29   57     7     7    5.4384E+03 -6.2770E+02   6.0661E+03  0.000E+00  0.000E+00  0.000E+00  2.00754E+03  3.504E-02  3.000E+00  1.350E+03  0.000E+00  0.000E+00
   1   30   57     7     8    6.0661E+03 -6.2294E+02   6.6890E+03  0.000E+00  0.000E+00  0.000E+00  2.00254E+03  3.856E-02  3.000E+00  1.350E+03  0.000E+00  0.000E+00
   1   31   57     7     9    6.6890E+03 -6.1928E+02   7.3083E+03  0.000E+00  0.000E+00  0.000E+00  1.99854E+03  4.128E-02  3.000E+00  1.350E+03  0.000E+00  0.000E+00
   1   32   57     7    10    7.3083E+03 -6.9352E+02   8.0018E+03  0.000E+00  0.000E+00  0.000E+00  1.99355E+03  4.672E-02  3.000E+00  1.530E+03  0.000E+00  0.000E+00
   1   33   57     7    11    8.0018E+03  3.0018E+02   7.7017E+03  0.000E+00  0.000E+00  0.000E+00  1.99156E+03  5.589E-02  3.000E+00  5.400E+02  0.000E+00  0.000E+00
   1   33   58     7    12    7.7017E+03 -2.0529E+02   7.9070E+03  0.000E+00  0.000E+00  0.000E+00  1.99054E+03  4.379E-02  3.000E+00  4.500E+02  0.000E+00  0.000E+00
   1   34   58     7    13    7.9070E+03 -4.9408E+02   8.4010E+03  0.000E+00  0.000E+00  0.000E+00  1.98654E+03  4.252E-02  3.000E+00  1.080E+03  0.000E+00  0.000E+00
   1   34   59     7    14    8.4010E+03 -6.5308E+02   9.0541E+03  0.000E+00  0.000E+00  0.000E+00  1.98455E+03  4.870E-02  3.000E+00  4.500E+02  0.000E+00  0.000E+00
   1   35   59     7    15    9.0541E+03  4.2006E+02   8.6341E+03  0.000E+00  0.000E+00  0.000E+00  1.98155E+03  4.909E-02  3.000E+00  7.650E+02  0.000E+00  0.000E+00
   1   36   59     7    16    8.6341E+03  3.6930E+02   8.2648E+03  0.000E+00  0.000E+00  0.000E+00  1.97755E+03  4.712E-02  3.000E+00  6.750E+02  0.000E+00  0.000E+00
   1   37   60     7    17    8.2648E+03 -2.4807E+03   1.0745E+04  0.000E+00  0.000E+00  0.000E+00  1.97255E+03  4.929E-02  3.000E+00  1.710E+03  0.000E+00  0.000E+00
   1   23   71     8     1    0.0000E+00  0.0000E+00   0.0000E+00  0.000E+00  0.000E+00  0.000E+00  2.05250E+03  0.000E+00  3.000E+00  6.750E+02  0.000E+00  0.000E+00
   1   24   71     8     2    0.0000E+00 -7.5254E+02   7.5254E+02  0.000E+00  0.000E+00  0.000E+00  2.04851E+03  8.146E-03  3.000E+00  1.530E+03  0.000E+00  0.000E+00
   1   25   71     8     3    7.5254E+02  3.4619E+02   4.0635E+02  0.000E+00  0.000E+00  0.000E+00  2.04651E+03  1.287E-02  3.000E+00  6.750E+02  0.000E+00  0.000E+00
   1   26   71     8     4    4.0635E+02 -7.3799E+02   1.1443E+03  0.000E+00  0.000E+00  0.000E+00  2.04552E+03  1.765E-02  3.000E+00  1.530E+03  0.000E+00  0.000E+00
   1   27   72     8     5    1.1443E+03 -7.2689E+02   1.8712E+03  0.000E+00  0.000E+00  0.000E+00  2.04452E+03  2.491E-02  3.000E+00  1.530E+03  0.000E+00  0.000E+00
   1   27   73     8     6    1.8712E+03 -2.0096E+03   3.8808E+03  0.000E+00  0.000E+00  0.000E+00  2.04353E+03  3.432E-02  3.000E+00  4.500E+02  0.000E+00  0.000E+00
   1   28   73     8     7    3.8808E+03 -2.2169E+03   6.0977E+03  0.000E+00  0.000E+00  0.000E+00  2.04255E+03  5.106E-02  3.000E+00  1.530E+03  0.000E+00  0.000E+00
   1   29   73     8     8    6.0977E+03 -3.2829E+03   9.3806E+03  0.000E+00  0.000E+00  0.000E+00  2.04157E+03  6.821E-02  3.000E+00  1.350E+03  0.000E+00  0.000E+00
   1   30   73     8     9    9.3806E+03 -1.9360E+03   1.1317E+04  0.000E+00  0.000E+00  0.000E+00  2.04057E+03  6.596E-02  3.000E+00  1.350E+03  0.000E+00  0.000E+00
   1   31   73     8    10    1.1317E+04 -5.9749E+02   1.1914E+04  0.000E+00  0.000E+00  0.000E+00  2.03756E+03  5.742E-02  3.000E+00  1.350E+03  0.000E+00  0.000E+00
   1   32   73     8    11    1.1914E+04 -1.9483E+03   1.3862E+04  0.000E+00  0.000E+00  0.000E+00  2.03256E+03  5.685E-02  3.000E+00  1.350E+03  0.000E+00  0.000E+00
   1   33   73     8    12    1.3862E+04 -3.2910E+03   1.7153E+04  0.000E+00  0.000E+00  0.000E+00  2.02756E+03  6.222E-02  3.000E+00  1.350E+03  0.000E+00  0.000E+00
   1   34   73     8    13    1.7153E+04 -1.1000E+03   1.8253E+04  0.000E+00  0.000E+00  0.000E+00  2.02356E+03  5.557E-02  3.000E+00  4.500E+02  0.000E+00  0.000E+00
   1   34   74     8    14    1.8253E+04 -2.1951E+03   2.0448E+04  0.000E+00  0.000E+00  0.000E+00  2.01556E+03  6.096E-02  3.000E+00  9.000E+02  0.000E+00  0.000E+00
   1   35   74     8    15    2.0448E+04  3.8519E+02   2.0063E+04  0.000E+00  0.000E+00  0.000E+00  2.01157E+03  7.066E-02  3.000E+00  6.750E+02  0.000E+00  0.000E+00
   1   36   74     8    16    2.0063E+04 -1.0952E+03   2.1158E+04  0.000E+00  0.000E+00  0.000E+00  2.00657E+03  6.625E-02  3.000E+00  4.500E+02  0.000E+00  0.000E+00
   1   36   73     8    17    2.1158E+04 -3.9931E+03   2.5152E+04  0.000E+00  0.000E+00  0.000E+00  2.00256E+03  6.320E-02  3.000E+00  9.000E+02  0.000E+00  0.000E+00
   1   37   73     8    18    2.5152E+04 -6.7788E+03   3.1930E+04  0.000E+00  0.000E+00  0.000E+00  1.99057E+03  6.943E-02  3.000E+00  1.530E+03  0.000E+00  0.000E+00
   1   38   72     8    19    3.1930E+04  3.9019E+02   3.1540E+04  0.000E+00  0.000E+00  0.000E+00  1.97758E+03  7.806E-02  3.000E+00  6.750E+02  0.000E+00  0.000E+00
   1   39   72     8    20    3.1540E+04  3.9246E+02   3.1148E+04  0.000E+00  0.000E+00  0.000E+00  1.96858E+03  8.142E-02  3.000E+00  6.750E+02  0.000E+00  0.000E+00
   1   40   72     8    21    3.1148E+04 -5.5857E+02   3.1706E+04  0.000E+00  0.000E+00  0.000E+00  1.95959E+03  8.624E-02  3.000E+00  1.350E+03  0.000E+00  0.000E+00
   1   41   72     8    22    3.1706E+04  3.9499E+02   3.1311E+04  0.000E+00  0.000E+00  0.000E+00  1.95359E+03  8.516E-02  3.000E+00  6.750E+02  0.000E+00  0.000E+00
   1   42   72     8    23    3.1311E+04 -1.8832E+02   3.1500E+04  0.000E+00  0.000E+00  0.000E+00  1.94658E+03  8.152E-02  3.000E+00  4.500E+02  0.000E+00  0.000E+00
   1   42   73     8    24    3.1500E+04  1.3319E+02   3.1366E+04  0.000E+00  0.000E+00  0.000E+00  1.94459E+03  9.197E-02  3.000E+00  2.250E+02  0.000E+00  0.000E+00
   1   31   38     9     1    5.8288E+04 -1.8334E+03   6.0121E+04  0.000E+00  0.000E+00  0.000E+00  2.07764E+03  1.419E-01  3.000E+00  1.350E+03  0.000E+00  0.000E+00
   1   31   39     9     2    6.0121E+04 -5.0275E+02   6.0624E+04  0.000E+00  0.000E+00  0.000E+00  2.07263E+03  1.276E-01  3.000E+00  1.350E+03  0.000E+00  0.000E+00
   1   31   40     9     3    6.0624E+04 -5.1129E+02   6.1135E+04  0.000E+00  0.000E+00  0.000E+00  2.06262E+03  1.213E-01  3.000E+00  1.350E+03  0.000E+00  0.000E+00
   1   31   41     9     4    6.1135E+04 -4.9636E+02   6.1632E+04  0.000E+00  0.000E+00  0.000E+00  2.05463E+03  1.323E-01  3.000E+00  1.350E+03  0.000E+00  0.000E+00
   1   31   42     9     5    6.1632E+04 -3.7205E+02   6.2004E+04  0.000E+00  0.000E+00  0.000E+00  2.04966E+03  1.555E-01  3.000E+00  1.080E+03  0.000E+00  0.000E+00
   1   30   42     9     6    6.2004E+04 -1.4849E+03   6.3489E+04  0.000E+00  0.000E+00  0.000E+00  2.04870E+03  2.001E-01  3.000E+00  4.500E+02  0.000E+00  0.000E+00
   1   30   43    10     1    8.0512E+04 -1.7892E+03   8.2302E+04  0.000E+00  0.000E+00  0.000E+00  2.04267E+03  1.747E-01  3.000E+00  1.350E+03  0.000E+00  0.000E+00
   1   30   44    10     2    8.2302E+04 -1.1796E+03   8.3481E+04  0.000E+00  0.000E+00  0.000E+00  2.03869E+03  1.893E-01  3.000E+00  9.000E+02  0.000E+00  0.000E+00
   1   29   44    10     3    8.3481E+04 -1.0365E+03   8.4518E+04  0.000E+00  0.000E+00  0.000E+00  2.03770E+03  1.966E-01  3.000E+00  4.500E+02  0.000E+00  0.000E+00
   1   29   45    10     4    8.4518E+04 -4.2463E+02   8.4942E+04  0.000E+00  0.000E+00  0.000E+00  2.03469E+03  1.855E-01  3.000E+00  1.350E+03  0.000E+00  0.000E+00
   1   29   46    10     5    8.4942E+04  4.6267E+02   8.4480E+04  0.000E+00  0.000E+00  0.000E+00  2.03069E+03  1.854E-01  3.000E+00  6.750E+02  0.000E+00  0.000E+00
   1   29   47    10     6    8.4480E+04  1.5179E+02   8.4328E+04  0.000E+00  0.000E+00  0.000E+00  2.02767E+03  1.746E-01  3.000E+00  2.250E+02  0.000E+00  0.000E+00
   1   30   47    10     7    8.4328E+04 -2.7514E+02   8.4603E+04  0.000E+00  0.000E+00  0.000E+00  2.02469E+03  1.943E-01  3.000E+00  9.000E+02  0.000E+00  0.000E+00
   1   30   48    10     8    8.4603E+04  5.4127E+02   8.4062E+04  0.000E+00  0.000E+00  0.000E+00  2.02271E+03  2.075E-01  3.000E+00  7.650E+02  0.000E+00  0.000E+00
   1   31   49    10     9    8.4062E+04  5.8705E+02   8.3475E+04  0.000E+00  0.000E+00  0.000E+00  2.01869E+03  1.866E-01  3.000E+00  8.550E+02  0.000E+00  0.000E+00
   1   32   50    10    10    8.3475E+04 -5.5122E+02   8.4026E+04  0.000E+00  0.000E+00  0.000E+00  2.01268E+03  1.776E-01  3.000E+00  1.710E+03  0.000E+00  0.000E+00
   1   32   51    11     1    1.0416E+05 -3.0793E+03   1.0724E+05  0.000E+00  0.000E+00  0.000E+00  2.00772E+03  2.190E-01  3.000E+00  1.350E+03  0.000E+00  0.000E+00
   1   33   52    11     2    1.0724E+05 -4.4183E+02   1.0768E+05  0.000E+00  0.000E+00  0.000E+00  2.00371E+03  2.112E-01  3.000E+00  1.530E+03  0.000E+00  0.000E+00
   1   33   53    11     3    1.0768E+05 -2.3962E+03   1.1007E+05  0.000E+00  0.000E+00  0.000E+00  1.99968E+03  1.751E-01  3.000E+00  4.500E+02  0.000E+00  0.000E+00
   1   34   53    11     4    1.1007E+05 -1.4231E+03   1.1150E+05  0.000E+00  0.000E+00  0.000E+00  1.99268E+03  1.824E-01  3.000E+00  1.080E+03  0.000E+00  0.000E+00
   1   34   54    11     5    1.1150E+05 -1.1362E+03   1.1263E+05  0.000E+00  0.000E+00  0.000E+00  1.98974E+03  2.376E-01  3.000E+00  9.000E+02  0.000E+00  0.000E+00
   1   35   54    11     6    1.1263E+05 -5.5791E+02   1.1319E+05  0.000E+00  0.000E+00  0.000E+00  1.98876E+03  2.602E-01  3.000E+00  4.500E+02  0.000E+00  0.000E+00
   1   35   55    11     7    1.1319E+05  5.7534E+02   1.1262E+05  0.000E+00  0.000E+00  0.000E+00  1.98675E+03  2.521E-01  3.000E+00  7.650E+02  0.000E+00  0.000E+00
   1   35   56    11     8    1.1262E+05 -3.9037E+02   1.1301E+05  0.000E+00  0.000E+00  0.000E+00  1.98374E+03  2.449E-01  3.000E+00  1.530E+03  0.000E+00  0.000E+00
   1   36   57    11     9    1.1301E+05 -3.9336E+02   1.1340E+05  0.000E+00  0.000E+00  0.000E+00  1.97977E+03  2.700E-01  3.000E+00  1.710E+03  0.000E+00  0.000E+00
   1   36   58    11    10    1.1340E+05 -2.7012E+02   1.1367E+05  0.000E+00  0.000E+00  0.000E+00  1.97880E+03  2.999E-01  3.000E+00  1.350E+03  0.000E+00  0.000E+00
   1   36   59    11    11    1.1367E+05 -2.0926E+02   1.1388E+05  0.000E+00  0.000E+00  0.000E+00  1.97677E+03  2.675E-01  3.000E+00  9.000E+02  0.000E+00  0.000E+00
   1   37   59    11    12    1.1388E+05  1.7592E+02   1.1370E+05  0.000E+00  0.000E+00  0.000E+00  1.97578E+03  2.819E-01  3.000E+00  2.250E+02  0.000E+00  0.000E+00
   1   37   60    11    13    1.1370E+05  4.3811E+02   1.1326E+05  0.000E+00  0.000E+00  0.000E+00  1.97481E+03  3.113E-01  3.000E+00  5.400E+02  0.000E+00  0.000E+00
   1   38   60    11    14    1.1326E+05 -6.6948E+01   1.1333E+05  0.000E+00  0.000E+00  0.000E+00  1.97385E+03  3.512E-01  3.000E+00  4.500E+02  0.000E+00  0.000E+00
   1   38   61    12     1    1.2408E+05 -1.9724E+02   1.2427E+05  0.000E+00  0.000E+00  0.000E+00  1.97187E+03  3.711E-01  3.000E+00  1.530E+03  0.000E+00  0.000E+00
   1   38   62    12     2    1.2427E+05 -2.2691E+02   1.2450E+05  0.000E+00  0.000E+00  0.000E+00  1.97085E+03  3.517E-01  3.000E+00  1.530E+03  0.000E+00  0.000E+00
   1   38   63    12     3    1.2450E+05 -8.4758E+01   1.2459E+05  0.000E+00  0.000E+00  0.000E+00  1.96981E+03  3.116E-01  3.000E+00  4.500E+02  0.000E+00  0.000E+00
   1   39   63    12     4    1.2459E+05 -1.0852E+03   1.2567E+05  0.000E+00  0.000E+00  0.000E+00  1.96879E+03  2.943E-01  3.000E+00  9.000E+02  0.000E+00  0.000E+00
   1   39   64    13     1    1.3071E+05 -3.1212E+02   1.3102E+05  0.000E+00  0.000E+00  0.000E+00  1.96783E+03  3.266E-01  3.000E+00  1.800E+03  0.000E+00  0.000E+00
   1   39   65    13     2    1.3102E+05 -1.0648E+03   1.3209E+05  0.000E+00  0.000E+00  0.000E+00  1.96682E+03  3.169E-01  3.000E+00  9.000E+02  0.000E+00  0.000E+00
   1   40   65    13     3    1.3209E+05 -2.3008E+03   1.3439E+05  0.000E+00  0.000E+00  0.000E+00  1.96589E+03  3.871E-01  3.000E+00  4.500E+02  0.000E+00  0.000E+00
   1   40   66    13     4    1.3439E+05 -1.8926E+02   1.3458E+05  0.000E+00  0.000E+00  0.000E+00  1.96486E+03  3.598E-01  3.000E+00  1.350E+03  0.000E+00  0.000E+00
   1   40   67    13     5    1.3458E+05  5.4475E+02   1.3403E+05  0.000E+00  0.000E+00  0.000E+00  1.96281E+03  3.070E-01  3.000E+00  6.750E+02  0.000E+00  0.000E+00
   1   40   68    13     6    1.3403E+05 -2.2749E+02   1.3426E+05  0.000E+00  0.000E+00  0.000E+00  1.96083E+03  3.315E-01  3.000E+00  1.350E+03  0.000E+00  0.000E+00
   1   41   69    13     7    1.3426E+05  5.4736E+02   1.3371E+05  0.000E+00  0.000E+00  0.000E+00  1.95981E+03  3.109E-01  3.000E+00  6.750E+02  0.000E+00  0.000E+00
   1   41   70    13     8    1.3371E+05 -4.2633E+02   1.3414E+05  0.000E+00  0.000E+00  0.000E+00  1.95675E+03  2.507E-01  3.000E+00  1.710E+03  0.000E+00  0.000E+00
   1   42   71    13     9    1.3414E+05 -3.8339E+02   1.3452E+05  0.000E+00  0.000E+00  0.000E+00  1.95075E+03  2.494E-01  3.000E+00  1.530E+03  0.000E+00  0.000E+00
   1   42   72    13    10    1.3452E+05  5.1337E+02   1.3401E+05  0.000E+00  0.000E+00  0.000E+00  1.94776E+03  2.606E-01  3.000E+00  6.750E+02  0.000E+00  0.000E+00
   1   42   73    13    11    1.3401E+05  1.6641E+02   1.3384E+05  0.000E+00  0.000E+00  0.000E+00  1.94474E+03  2.396E-01  3.000E+00  2.250E+02  0.000E+00  0.000E+00
   1   42   73    14     1    1.6521E+05 -8.6452E+01   1.6529E+05  0.000E+00  0.000E+00  0.000E+00  1.94381E+03  3.079E-01  3.000E+00  4.500E+02  0.000E+00  0.000E+00
   1   43   73    14     2    1.6529E+05 -5.1616E+02   1.6581E+05  0.000E+00  0.000E+00  0.000E+00  1.94285E+03  3.530E-01  3.000E+00  4.500E+02  0.000E+00  0.000E+00
   1   43   74    14     3    1.6581E+05  6.5644E+02   1.6515E+05  0.000E+00  0.000E+00  0.000E+00  1.94186E+03  3.581E-01  3.000E+00  7.650E+02  0.000E+00  0.000E+00
   1   43   75    14     4    1.6515E+05 -1.4515E+02   1.6530E+05  0.000E+00  0.000E+00  0.000E+00  1.93984E+03  3.387E-01  3.000E+00  9.000E+02  0.000E+00  0.000E+00
   1   44   75    14     5    1.6530E+05 -8.0930E+01   1.6538E+05  0.000E+00  0.000E+00  0.000E+00  1.93882E+03  3.202E-01  3.000E+00  4.500E+02  0.000E+00  0.000E+00
   1   44   76    14     6    1.6538E+05  5.7887E+02   1.6480E+05  0.000E+00  0.000E+00  0.000E+00  1.93686E+03  3.576E-01  3.000E+00  6.750E+02  0.000E+00  0.000E+00
   1   44   77    15     1    1.7237E+05  6.3353E+02   1.7174E+05  0.000E+00  0.000E+00  0.000E+00  1.93594E+03  4.386E-01  3.000E+00  6.750E+02  0.000E+00  0.000E+00
   1   44   78    15     2    1.7174E+05  5.7126E+02   1.7117E+05  0.000E+00  0.000E+00  0.000E+00  1.93485E+03  3.463E-01  3.000E+00  6.750E+02  0.000E+00  0.000E+00
   1   44   79    15     3    1.7117E+05 -1.6691E+02   1.7133E+05  0.000E+00  0.000E+00  0.000E+00  1.93181E+03  3.145E-01  3.000E+00  9.000E+02  0.000E+00  0.000E+00
   1   45   79    15     4    1.7133E+05 -5.1496E+02   1.7185E+05  0.000E+00  0.000E+00  0.000E+00  1.93086E+03  3.556E-01  3.000E+00  4.500E+02  0.000E+00  0.000E+00



1
  VOLUMETRIC BUDGET FOR UNSATURATED ZONE BENEATH STREAMS AT END OF TIME STEP  5478 STRESS PERIOD   2
  ------------------------------------------------------------------------------------------------

    CUMULATIVE VOLUMES             L**3    RATES FOR THIS TIME STEP         L**3/T
    ------------------                     ------------------------


          STREAM LOSS =            0.0000            STREAM LOSS =            0.0000
    CHANGE IN STORAGE =            0.0000      CHANGE IN STORAGE =            0.0000
       RECHARGE TO GW =            0.0000         RECHARGE TO GW =            0.0000

             TOTAL IN =            0.0000               TOTAL IN =            0.0000

            TOTAL OUT =            0.0000              TOTAL OUT =            0.0000

             IN - OUT =            0.0000               IN - OUT =            0.0000

  PERCENT DISCREPANCY =            0.00      PERCENT DISCREPANCY =             0.00





UNSATURATED ZONE PACKAGE VOLUMETRIC BUDGET FOR  TIME STEP  5478 STRESS PERIOD    2
  ------------------------------------------------------------------------------



     CUMULATIVE VOLUMES      L**3       RATES FOR THIS TIME STEP      L**3/T
     ------------------                 ------------------------

           IN:                                      IN:
           ---                                      ---
        INFILTRATION =    75987263.6967          INFILTRATION =       13868.8198

          OUT:                                     OUT:
          ----                                     ----
              UZF ET =       0.0000E+00                UZF ET =       0.0000E+00
        UZF RECHARGE =    75987263.6967          UZF RECHARGE =       13868.8198

            IN - OUT =       0.0000E+00              IN - OUT =       0.0000E+00

          STORAGE:                                 STORAGE:
          --------                                 --------
      STORAGE CHANGE =       0.0000E+00        STORAGE CHANGE =       0.0000E+00

 PERCENT DISCREPANCY IS DIFFERENCE BETWEEN IN-OUT MINUS CHANGE IN STORAGE
 DIVIDED BY THE AVERAGE OF IN AND OUT TIMES 100

 PERCENT DISCREPANCY =           0.00     PERCENT DISCREPANCY =           0.00






1
  VOLUMETRIC BUDGET FOR ENTIRE MODEL AT END OF TIME STEP 5478, STRESS PERIOD   2
  ------------------------------------------------------------------------------

     CUMULATIVE VOLUMES      L**3       RATES FOR THIS TIME STEP      L**3/T
     ------------------                 ------------------------

           IN:                                      IN:
           ---                                      ---
             STORAGE =           0.0000               STORAGE =           0.0000
       CONSTANT HEAD =           0.0000         CONSTANT HEAD =           0.0000
               WELLS =      417424.0000                 WELLS =          76.0000
      STREAM LEAKAGE =   104086784.0000        STREAM LEAKAGE =       18996.3223
        UZF RECHARGE =    75988976.0000          UZF RECHARGE =       13869.0908
               GW ET =           0.0000                 GW ET =           0.0000
     SURFACE LEAKAGE =           0.0000       SURFACE LEAKAGE =           0.0000

            TOTAL IN =   180493184.0000              TOTAL IN =       32941.4141

          OUT:                                     OUT:
          ----                                     ----
             STORAGE =           0.0000               STORAGE =           0.0000
       CONSTANT HEAD =     5493739.0000         CONSTANT HEAD =        1002.7369
               WELLS =           0.0000                 WELLS =           0.0000
      STREAM LEAKAGE =  1045632448.0000        STREAM LEAKAGE =      190843.3438
        UZF RECHARGE =           0.0000          UZF RECHARGE =           0.0000
               GW ET =           0.0000                 GW ET =           0.0000
     SURFACE LEAKAGE =           0.0000       SURFACE LEAKAGE =           0.0000

           TOTAL OUT =  1051126208.0000             TOTAL OUT =      191846.0781

            IN - OUT =  -870633024.0000              IN - OUT =     -158904.6562

 PERCENT DISCREPANCY =        -141.38     PERCENT DISCREPANCY =        -141.38






         TIME SUMMARY AT END OF TIME STEP 5478 IN STRESS PERIOD    2
                    SECONDS     MINUTES      HOURS       DAYS        YEARS
                    -----------------------------------------------------------
   TIME STEP LENGTH  86400.      1440.0      24.000      1.0000     2.73785E-03
 STRESS PERIOD TIME 4.73299E+08 7.88832E+06 1.31472E+05  5478.0      14.998    
         TOTAL TIME 4.73386E+08 7.88976E+06 1.31496E+05  5479.0      15.001    
1
 
 SOLVING FOR HEAD 

 NO OUTPUT CONTROL FOR STRESS PERIOD    2   TIME STEP 5479
 
 SOLVING FOR HEAD 

 NO OUTPUT CONTROL FOR STRESS PERIOD    2   TIME STEP 5480
 
 SOLVING FOR HEAD 

 NO OUTPUT CONTROL FOR STRESS PERIOD    2   TIME STEP 5481
 
 SOLVING FOR HEAD 

 NO OUTPUT CONTROL FOR STRESS PERIOD    2   TIME STEP 5482
 
 SOLVING FOR HEAD 

 NO OUTPUT CONTROL FOR STRESS PERIOD    2   TIME STEP 5483
 
 SOLVING FOR HEAD 

 NO OUTPUT CONTROL FOR STRESS PERIOD    2   TIME STEP 5484
 
 SOLVING FOR HEAD 

 NO OUTPUT CONTROL FOR STRESS PERIOD    2   TIME STEP 5485
 
 SOLVING FOR HEAD 

 NO OUTPUT CONTROL FOR STRESS PERIOD    2   TIME STEP 5486
 
 SOLVING FOR HEAD 

 NO OUTPUT CONTROL FOR STRESS PERIOD    2   TIME STEP 5487
 
 SOLVING FOR HEAD 

 NO OUTPUT CONTROL FOR STRESS PERIOD    2   TIME STEP 5488
 
 SOLVING FOR HEAD 

 NO OUTPUT CONTROL FOR STRESS PERIOD    2   TIME STEP 5489
 
 SOLVING FOR HEAD 

 NO OUTPUT CONTROL FOR STRESS PERIOD    2   TIME STEP 5490
 
 SOLVING FOR HEAD 

 NO OUTPUT CONTROL FOR STRESS PERIOD    2   TIME STEP 5491
 
 SOLVING FOR HEAD 

 NO OUTPUT CONTROL FOR STRESS PERIOD    2   TIME STEP 5492
 
 SOLVING FOR HEAD 

 NO OUTPUT CONTROL FOR STRESS PERIOD    2   TIME STEP 5493
 
 SOLVING FOR HEAD 

 NO OUTPUT CONTROL FOR STRESS PERIOD    2   TIME STEP 5494
 
 SOLVING FOR HEAD 

 NO OUTPUT CONTROL FOR STRESS PERIOD    2   TIME STEP 5495
 
 SOLVING FOR HEAD 

 NO OUTPUT CONTROL FOR STRESS PERIOD    2   TIME STEP 5496
 
 SOLVING FOR HEAD 

 NO OUTPUT CONTROL FOR STRESS PERIOD    2   TIME STEP 5497
 
 SOLVING FOR HEAD 

 NO OUTPUT CONTROL FOR STRESS PERIOD    2   TIME STEP 5498
 
 SOLVING FOR HEAD 

 NO OUTPUT CONTROL FOR STRESS PERIOD    2   TIME STEP 5499
 
 SOLVING FOR HEAD 

 NO OUTPUT CONTROL FOR STRESS PERIOD    2   TIME STEP 5500
 
 SOLVING FOR HEAD 

 NO OUTPUT CONTROL FOR STRESS PERIOD    2   TIME STEP 5501
 
 SOLVING FOR HEAD 

 NO OUTPUT CONTROL FOR STRESS PERIOD    2   TIME STEP 5502
 
 SOLVING FOR HEAD 

 NO OUTPUT CONTROL FOR STRESS PERIOD    2   TIME STEP 5503
 
 SOLVING FOR HEAD 

 NO OUTPUT CONTROL FOR STRESS PERIOD    2   TIME STEP 5504
 
 SOLVING FOR HEAD 

 NO OUTPUT CONTROL FOR STRESS PERIOD    2   TIME STEP 5505
 
 SOLVING FOR HEAD 

 NO OUTPUT CONTROL FOR STRESS PERIOD    2   TIME STEP 5506
 
 SOLVING FOR HEAD 

 NO OUTPUT CONTROL FOR STRESS PERIOD    2   TIME STEP 5507
 
 SOLVING FOR HEAD 

 NO OUTPUT CONTROL FOR STRESS PERIOD    2   TIME STEP 5508
 
 SOLVING FOR HEAD 

 NO OUTPUT CONTROL FOR STRESS PERIOD    2   TIME STEP 5509
 
 SOLVING FOR HEAD 

 NO OUTPUT CONTROL FOR STRESS PERIOD    2   TIME STEP 5510
 
 SOLVING FOR HEAD 

 NO OUTPUT CONTROL FOR STRESS PERIOD    2   TIME STEP 5511
 
 SOLVING FOR HEAD 

 NO OUTPUT CONTROL FOR STRESS PERIOD    2   TIME STEP 5512
 
 SOLVING FOR HEAD 

 NO OUTPUT CONTROL FOR STRESS PERIOD    2   TIME STEP 5513
 
 SOLVING FOR HEAD 

 NO OUTPUT CONTROL FOR STRESS PERIOD    2   TIME STEP 5514
 
 SOLVING FOR HEAD 

 NO OUTPUT CONTROL FOR STRESS PERIOD    2   TIME STEP 5515
 
 SOLVING FOR HEAD 

 NO OUTPUT CONTROL FOR STRESS PERIOD    2   TIME STEP 5516
 
 SOLVING FOR HEAD 

 NO OUTPUT CONTROL FOR STRESS PERIOD    2   TIME STEP 5517
 
 SOLVING FOR HEAD 

 NO OUTPUT CONTROL FOR STRESS PERIOD    2   TIME STEP 5518
 
 SOLVING FOR HEAD 

 NO OUTPUT CONTROL FOR STRESS PERIOD    2   TIME STEP 5519
 
 SOLVING FOR HEAD 

 NO OUTPUT CONTROL FOR STRESS PERIOD    2   TIME STEP 5520
 
 SOLVING FOR HEAD 

 NO OUTPUT CONTROL FOR STRESS PERIOD    2   TIME STEP 5521
 
 SOLVING FOR HEAD 

 NO OUTPUT CONTROL FOR STRESS PERIOD    2   TIME STEP 5522
 
 SOLVING FOR HEAD 

 NO OUTPUT CONTROL FOR STRESS PERIOD    2   TIME STEP 5523
 
 SOLVING FOR HEAD 

 NO OUTPUT CONTROL FOR STRESS PERIOD    2   TIME STEP 5524
 
 SOLVING FOR HEAD 

 NO OUTPUT CONTROL FOR STRESS PERIOD    2   TIME STEP 5525
 
 SOLVING FOR HEAD 

 NO OUTPUT CONTROL FOR STRESS PERIOD    2   TIME STEP 5526
 
 SOLVING FOR HEAD 

 NO OUTPUT CONTROL FOR STRESS PERIOD    2   TIME STEP 5527
 
 SOLVING FOR HEAD 

 NO OUTPUT CONTROL FOR STRESS PERIOD    2   TIME STEP 5528
 
 SOLVING FOR HEAD 

 NO OUTPUT CONTROL FOR STRESS PERIOD    2   TIME STEP 5529
 
 SOLVING FOR HEAD 

 NO OUTPUT CONTROL FOR STRESS PERIOD    2   TIME STEP 5530
 
 SOLVING FOR HEAD 

 NO OUTPUT CONTROL FOR STRESS PERIOD    2   TIME STEP 5531
 
 SOLVING FOR HEAD 

 NO OUTPUT CONTROL FOR STRESS PERIOD    2   TIME STEP 5532
 
 SOLVING FOR HEAD 

 NO OUTPUT CONTROL FOR STRESS PERIOD    2   TIME STEP 5533
 
 SOLVING FOR HEAD 

 NO OUTPUT CONTROL FOR STRESS PERIOD    2   TIME STEP 5534
 
 SOLVING FOR HEAD 

 NO OUTPUT CONTROL FOR STRESS PERIOD    2   TIME STEP 5535
 
 SOLVING FOR HEAD 

 NO OUTPUT CONTROL FOR STRESS PERIOD    2   TIME STEP 5536
 
 SOLVING FOR HEAD 

 NO OUTPUT CONTROL FOR STRESS PERIOD    2   TIME STEP 5537
 
 SOLVING FOR HEAD 

 NO OUTPUT CONTROL FOR STRESS PERIOD    2   TIME STEP 5538
 
 SOLVING FOR HEAD 

 NO OUTPUT CONTROL FOR STRESS PERIOD    2   TIME STEP 5539
 
 SOLVING FOR HEAD 

 NO OUTPUT CONTROL FOR STRESS PERIOD    2   TIME STEP 5540
 
 SOLVING FOR HEAD 

 NO OUTPUT CONTROL FOR STRESS PERIOD    2   TIME STEP 5541
 
 SOLVING FOR HEAD 

 NO OUTPUT CONTROL FOR STRESS PERIOD    2   TIME STEP 5542
 
 SOLVING FOR HEAD 

 NO OUTPUT CONTROL FOR STRESS PERIOD    2   TIME STEP 5543
 
 SOLVING FOR HEAD 

 NO OUTPUT CONTROL FOR STRESS PERIOD    2   TIME STEP 5544
 
 SOLVING FOR HEAD 

 NO OUTPUT CONTROL FOR STRESS PERIOD    2   TIME STEP 5545
 
 SOLVING FOR HEAD 

 NO OUTPUT CONTROL FOR STRESS PERIOD    2   TIME STEP 5546
 
 SOLVING FOR HEAD 

 NO OUTPUT CONTROL FOR STRESS PERIOD    2   TIME STEP 5547
 
 SOLVING FOR HEAD 

 NO OUTPUT CONTROL FOR STRESS PERIOD    2   TIME STEP 5548
 
 SOLVING FOR HEAD 

 NO OUTPUT CONTROL FOR STRESS PERIOD    2   TIME STEP 5549
 
 SOLVING FOR HEAD 

 NO OUTPUT CONTROL FOR STRESS PERIOD    2   TIME STEP 5550
 
 SOLVING FOR HEAD 

 NO OUTPUT CONTROL FOR STRESS PERIOD    2   TIME STEP 5551
 
 SOLVING FOR HEAD 

 NO OUTPUT CONTROL FOR STRESS PERIOD    2   TIME STEP 5552
 
 SOLVING FOR HEAD 

 NO OUTPUT CONTROL FOR STRESS PERIOD    2   TIME STEP 5553
 
 SOLVING FOR HEAD 

 NO OUTPUT CONTROL FOR STRESS PERIOD    2   TIME STEP 5554
 
 SOLVING FOR HEAD 

 NO OUTPUT CONTROL FOR STRESS PERIOD    2   TIME STEP 5555
 
 SOLVING FOR HEAD 

 NO OUTPUT CONTROL FOR STRESS PERIOD    2   TIME STEP 5556
 
 SOLVING FOR HEAD 

 NO OUTPUT CONTROL FOR STRESS PERIOD    2   TIME STEP 5557
 
 SOLVING FOR HEAD 

 NO OUTPUT CONTROL FOR STRESS PERIOD    2   TIME STEP 5558
 
 SOLVING FOR HEAD 

 NO OUTPUT CONTROL FOR STRESS PERIOD    2   TIME STEP 5559
 
 SOLVING FOR HEAD 

 NO OUTPUT CONTROL FOR STRESS PERIOD    2   TIME STEP 5560
 
 SOLVING FOR HEAD 

 NO OUTPUT CONTROL FOR STRESS PERIOD    2   TIME STEP 5561
 
 SOLVING FOR HEAD 

 NO OUTPUT CONTROL FOR STRESS PERIOD    2   TIME STEP 5562
 
 SOLVING FOR HEAD 

 NO OUTPUT CONTROL FOR STRESS PERIOD    2   TIME STEP 5563
 
 SOLVING FOR HEAD 

 NO OUTPUT CONTROL FOR STRESS PERIOD    2   TIME STEP 5564
 
 SOLVING FOR HEAD 

 NO OUTPUT CONTROL FOR STRESS PERIOD    2   TIME STEP 5565
 
 SOLVING FOR HEAD 

 NO OUTPUT CONTROL FOR STRESS PERIOD    2   TIME STEP 5566
 
 SOLVING FOR HEAD 

 NO OUTPUT CONTROL FOR STRESS PERIOD    2   TIME STEP 5567
 
 SOLVING FOR HEAD 

 NO OUTPUT CONTROL FOR STRESS PERIOD    2   TIME STEP 5568
 
 SOLVING FOR HEAD 

 NO OUTPUT CONTROL FOR STRESS PERIOD    2   TIME STEP 5569
 
 SOLVING FOR HEAD 

 NO OUTPUT CONTROL FOR STRESS PERIOD    2   TIME STEP 5570
 
 SOLVING FOR HEAD 

 NO OUTPUT CONTROL FOR STRESS PERIOD    2   TIME STEP 5571
 
 SOLVING FOR HEAD 

 NO OUTPUT CONTROL FOR STRESS PERIOD    2   TIME STEP 5572
 
 SOLVING FOR HEAD 

 NO OUTPUT CONTROL FOR STRESS PERIOD    2   TIME STEP 5573
 
 SOLVING FOR HEAD 

 NO OUTPUT CONTROL FOR STRESS PERIOD    2   TIME STEP 5574
 
 SOLVING FOR HEAD 

 NO OUTPUT CONTROL FOR STRESS PERIOD    2   TIME STEP 5575
 
 SOLVING FOR HEAD 

 NO OUTPUT CONTROL FOR STRESS PERIOD    2   TIME STEP 5576
 
 SOLVING FOR HEAD 

 NO OUTPUT CONTROL FOR STRESS PERIOD    2   TIME STEP 5577
 
 SOLVING FOR HEAD 

 NO OUTPUT CONTROL FOR STRESS PERIOD    2   TIME STEP 5578
 
 SOLVING FOR HEAD 

 NO OUTPUT CONTROL FOR STRESS PERIOD    2   TIME STEP 5579
 
 SOLVING FOR HEAD 

 NO OUTPUT CONTROL FOR STRESS PERIOD    2   TIME STEP 5580
 
 SOLVING FOR HEAD 

 NO OUTPUT CONTROL FOR STRESS PERIOD    2   TIME STEP 5581
 
 SOLVING FOR HEAD 

 NO OUTPUT CONTROL FOR STRESS PERIOD    2   TIME STEP 5582
 
 SOLVING FOR HEAD 

 NO OUTPUT CONTROL FOR STRESS PERIOD    2   TIME STEP 5583
 
 SOLVING FOR HEAD 

 NO OUTPUT CONTROL FOR STRESS PERIOD    2   TIME STEP 5584
 
 SOLVING FOR HEAD 

 NO OUTPUT CONTROL FOR STRESS PERIOD    2   TIME STEP 5585
 
 SOLVING FOR HEAD 

 NO OUTPUT CONTROL FOR STRESS PERIOD    2   TIME STEP 5586
 
 SOLVING FOR HEAD 

 NO OUTPUT CONTROL FOR STRESS PERIOD    2   TIME STEP 5587
 
 SOLVING FOR HEAD 

 NO OUTPUT CONTROL FOR STRESS PERIOD    2   TIME STEP 5588
 
 SOLVING FOR HEAD 

 NO OUTPUT CONTROL FOR STRESS PERIOD    2   TIME STEP 5589
 
 SOLVING FOR HEAD 

 NO OUTPUT CONTROL FOR STRESS PERIOD    2   TIME STEP 5590
 
 SOLVING FOR HEAD 

 NO OUTPUT CONTROL FOR STRESS PERIOD    2   TIME STEP 5591
 
 SOLVING FOR HEAD 

 NO OUTPUT CONTROL FOR STRESS PERIOD    2   TIME STEP 5592
 
 SOLVING FOR HEAD 

 NO OUTPUT CONTROL FOR STRESS PERIOD    2   TIME STEP 5593
 
 SOLVING FOR HEAD 

 NO OUTPUT CONTROL FOR STRESS PERIOD    2   TIME STEP 5594
 
 SOLVING FOR HEAD 

 NO OUTPUT CONTROL FOR STRESS PERIOD    2   TIME STEP 5595
 
 SOLVING FOR HEAD 

 NO OUTPUT CONTROL FOR STRESS PERIOD    2   TIME STEP 5596
 
 SOLVING FOR HEAD 

 NO OUTPUT CONTROL FOR STRESS PERIOD    2   TIME STEP 5597
 
 SOLVING FOR HEAD 

 NO OUTPUT CONTROL FOR STRESS PERIOD    2   TIME STEP 5598
 
 SOLVING FOR HEAD 

 NO OUTPUT CONTROL FOR STRESS PERIOD    2   TIME STEP 5599
 
 SOLVING FOR HEAD 

 NO OUTPUT CONTROL FOR STRESS PERIOD    2   TIME STEP 5600
 
 SOLVING FOR HEAD 

 NO OUTPUT CONTROL FOR STRESS PERIOD    2   TIME STEP 5601
 
 SOLVING FOR HEAD 

 NO OUTPUT CONTROL FOR STRESS PERIOD    2   TIME STEP 5602
 
 SOLVING FOR HEAD 

 NO OUTPUT CONTROL FOR STRESS PERIOD    2   TIME STEP 5603
 
 SOLVING FOR HEAD 

 NO OUTPUT CONTROL FOR STRESS PERIOD    2   TIME STEP 5604
 
 SOLVING FOR HEAD 

 NO OUTPUT CONTROL FOR STRESS PERIOD    2   TIME STEP 5605
 
 SOLVING FOR HEAD 

 NO OUTPUT CONTROL FOR STRESS PERIOD    2   TIME STEP 5606
 
 SOLVING FOR HEAD 

 NO OUTPUT CONTROL FOR STRESS PERIOD    2   TIME STEP 5607
 
 SOLVING FOR HEAD 

 NO OUTPUT CONTROL FOR STRESS PERIOD    2   TIME STEP 5608
 
 SOLVING FOR HEAD 

 NO OUTPUT CONTROL FOR STRESS PERIOD    2   TIME STEP 5609
 
 SOLVING FOR HEAD 

 NO OUTPUT CONTROL FOR STRESS PERIOD    2   TIME STEP 5610
 
 SOLVING FOR HEAD 

 NO OUTPUT CONTROL FOR STRESS PERIOD    2   TIME STEP 5611
 
 SOLVING FOR HEAD 

 NO OUTPUT CONTROL FOR STRESS PERIOD    2   TIME STEP 5612
 
 SOLVING FOR HEAD 

 NO OUTPUT CONTROL FOR STRESS PERIOD    2   TIME STEP 5613
 
 SOLVING FOR HEAD 

 NO OUTPUT CONTROL FOR STRESS PERIOD    2   TIME STEP 5614
 
 SOLVING FOR HEAD 

 NO OUTPUT CONTROL FOR STRESS PERIOD    2   TIME STEP 5615
 
 SOLVING FOR HEAD 

 NO OUTPUT CONTROL FOR STRESS PERIOD    2   TIME STEP 5616
 
 SOLVING FOR HEAD 

 NO OUTPUT CONTROL FOR STRESS PERIOD    2   TIME STEP 5617
 
 SOLVING FOR HEAD 

 NO OUTPUT CONTROL FOR STRESS PERIOD    2   TIME STEP 5618
 
 SOLVING FOR HEAD 

 NO OUTPUT CONTROL FOR STRESS PERIOD    2   TIME STEP 5619
 
 SOLVING FOR HEAD 

 NO OUTPUT CONTROL FOR STRESS PERIOD    2   TIME STEP 5620
 
 SOLVING FOR HEAD 

 NO OUTPUT CONTROL FOR STRESS PERIOD    2   TIME STEP 5621
 
 SOLVING FOR HEAD 

 NO OUTPUT CONTROL FOR STRESS PERIOD    2   TIME STEP 5622
 
 SOLVING FOR HEAD 

 NO OUTPUT CONTROL FOR STRESS PERIOD    2   TIME STEP 5623
 
 SOLVING FOR HEAD 

 NO OUTPUT CONTROL FOR STRESS PERIOD    2   TIME STEP 5624
 
 SOLVING FOR HEAD 

 NO OUTPUT CONTROL FOR STRESS PERIOD    2   TIME STEP 5625
 
 SOLVING FOR HEAD 

 NO OUTPUT CONTROL FOR STRESS PERIOD    2   TIME STEP 5626
 
 SOLVING FOR HEAD 

 NO OUTPUT CONTROL FOR STRESS PERIOD    2   TIME STEP 5627
 
 SOLVING FOR HEAD 

 NO OUTPUT CONTROL FOR STRESS PERIOD    2   TIME STEP 5628
 
 SOLVING FOR HEAD 

 NO OUTPUT CONTROL FOR STRESS PERIOD    2   TIME STEP 5629
 
 SOLVING FOR HEAD 

 NO OUTPUT CONTROL FOR STRESS PERIOD    2   TIME STEP 5630
 
 SOLVING FOR HEAD 

 NO OUTPUT CONTROL FOR STRESS PERIOD    2   TIME STEP 5631
 
 SOLVING FOR HEAD 

 NO OUTPUT CONTROL FOR STRESS PERIOD    2   TIME STEP 5632
 
 SOLVING FOR HEAD 

 NO OUTPUT CONTROL FOR STRESS PERIOD    2   TIME STEP 5633
 
 SOLVING FOR HEAD 

 NO OUTPUT CONTROL FOR STRESS PERIOD    2   TIME STEP 5634
 
 SOLVING FOR HEAD 

 NO OUTPUT CONTROL FOR STRESS PERIOD    2   TIME STEP 5635
 
 SOLVING FOR HEAD 

 NO OUTPUT CONTROL FOR STRESS PERIOD    2   TIME STEP 5636
 
 SOLVING FOR HEAD 

 NO OUTPUT CONTROL FOR STRESS PERIOD    2   TIME STEP 5637
 
 SOLVING FOR HEAD 

 NO OUTPUT CONTROL FOR STRESS PERIOD    2   TIME STEP 5638
 
 SOLVING FOR HEAD 

 NO OUTPUT CONTROL FOR STRESS PERIOD    2   TIME STEP 5639
 
 SOLVING FOR HEAD 

 NO OUTPUT CONTROL FOR STRESS PERIOD    2   TIME STEP 5640
 
 SOLVING FOR HEAD 

 NO OUTPUT CONTROL FOR STRESS PERIOD    2   TIME STEP 5641
 
 SOLVING FOR HEAD 

 NO OUTPUT CONTROL FOR STRESS PERIOD    2   TIME STEP 5642
 
 SOLVING FOR HEAD 

 NO OUTPUT CONTROL FOR STRESS PERIOD    2   TIME STEP 5643
 
 SOLVING FOR HEAD 

 NO OUTPUT CONTROL FOR STRESS PERIOD    2   TIME STEP 5644
 
 SOLVING FOR HEAD 

 NO OUTPUT CONTROL FOR STRESS PERIOD    2   TIME STEP 5645
 
 SOLVING FOR HEAD 

 NO OUTPUT CONTROL FOR STRESS PERIOD    2   TIME STEP 5646
 
 SOLVING FOR HEAD 

 NO OUTPUT CONTROL FOR STRESS PERIOD    2   TIME STEP 5647
 
 SOLVING FOR HEAD 

 NO OUTPUT CONTROL FOR STRESS PERIOD    2   TIME STEP 5648
 
 SOLVING FOR HEAD 

 NO OUTPUT CONTROL FOR STRESS PERIOD    2   TIME STEP 5649
 
 SOLVING FOR HEAD 

 NO OUTPUT CONTROL FOR STRESS PERIOD    2   TIME STEP 5650
 
 SOLVING FOR HEAD 

 NO OUTPUT CONTROL FOR STRESS PERIOD    2   TIME STEP 5651
 
 SOLVING FOR HEAD 

 NO OUTPUT CONTROL FOR STRESS PERIOD    2   TIME STEP 5652
 
 SOLVING FOR HEAD 

 NO OUTPUT CONTROL FOR STRESS PERIOD    2   TIME STEP 5653
 
 SOLVING FOR HEAD 

 NO OUTPUT CONTROL FOR STRESS PERIOD    2   TIME STEP 5654
 
 SOLVING FOR HEAD 

 NO OUTPUT CONTROL FOR STRESS PERIOD    2   TIME STEP 5655
 
 SOLVING FOR HEAD 

 NO OUTPUT CONTROL FOR STRESS PERIOD    2   TIME STEP 5656
 
 SOLVING FOR HEAD 

 NO OUTPUT CONTROL FOR STRESS PERIOD    2   TIME STEP 5657
 
 SOLVING FOR HEAD 

 NO OUTPUT CONTROL FOR STRESS PERIOD    2   TIME STEP 5658
 
 SOLVING FOR HEAD 

 NO OUTPUT CONTROL FOR STRESS PERIOD    2   TIME STEP 5659
 
 SOLVING FOR HEAD 

 NO OUTPUT CONTROL FOR STRESS PERIOD    2   TIME STEP 5660
 
 SOLVING FOR HEAD 

 NO OUTPUT CONTROL FOR STRESS PERIOD    2   TIME STEP 5661
 
 SOLVING FOR HEAD 

 NO OUTPUT CONTROL FOR STRESS PERIOD    2   TIME STEP 5662
 
 SOLVING FOR HEAD 

 NO OUTPUT CONTROL FOR STRESS PERIOD    2   TIME STEP 5663
 
 SOLVING FOR HEAD 

 NO OUTPUT CONTROL FOR STRESS PERIOD    2   TIME STEP 5664
 
 SOLVING FOR HEAD 

 NO OUTPUT CONTROL FOR STRESS PERIOD    2   TIME STEP 5665
 
 SOLVING FOR HEAD 

 NO OUTPUT CONTROL FOR STRESS PERIOD    2   TIME STEP 5666
 
 SOLVING FOR HEAD 

 NO OUTPUT CONTROL FOR STRESS PERIOD    2   TIME STEP 5667
 
 SOLVING FOR HEAD 

 NO OUTPUT CONTROL FOR STRESS PERIOD    2   TIME STEP 5668
 
 SOLVING FOR HEAD 

 NO OUTPUT CONTROL FOR STRESS PERIOD    2   TIME STEP 5669
 
 SOLVING FOR HEAD 

 NO OUTPUT CONTROL FOR STRESS PERIOD    2   TIME STEP 5670
 
 SOLVING FOR HEAD 

 NO OUTPUT CONTROL FOR STRESS PERIOD    2   TIME STEP 5671
 
 SOLVING FOR HEAD 

 NO OUTPUT CONTROL FOR STRESS PERIOD    2   TIME STEP 5672
 
 SOLVING FOR HEAD 

 NO OUTPUT CONTROL FOR STRESS PERIOD    2   TIME STEP 5673
 
 SOLVING FOR HEAD 

 NO OUTPUT CONTROL FOR STRESS PERIOD    2   TIME STEP 5674
 
 SOLVING FOR HEAD 

 NO OUTPUT CONTROL FOR STRESS PERIOD    2   TIME STEP 5675
 
 SOLVING FOR HEAD 

 NO OUTPUT CONTROL FOR STRESS PERIOD    2   TIME STEP 5676
 
 SOLVING FOR HEAD 

 NO OUTPUT CONTROL FOR STRESS PERIOD    2   TIME STEP 5677
 
 SOLVING FOR HEAD 

 NO OUTPUT CONTROL FOR STRESS PERIOD    2   TIME STEP 5678
 
 SOLVING FOR HEAD 

 NO OUTPUT CONTROL FOR STRESS PERIOD    2   TIME STEP 5679
 
 SOLVING FOR HEAD 

 NO OUTPUT CONTROL FOR STRESS PERIOD    2   TIME STEP 5680
 
 SOLVING FOR HEAD 

 NO OUTPUT CONTROL FOR STRESS PERIOD    2   TIME STEP 5681
 
 SOLVING FOR HEAD 

 NO OUTPUT CONTROL FOR STRESS PERIOD    2   TIME STEP 5682
 
 SOLVING FOR HEAD 

 NO OUTPUT CONTROL FOR STRESS PERIOD    2   TIME STEP 5683
 
 SOLVING FOR HEAD 

 NO OUTPUT CONTROL FOR STRESS PERIOD    2   TIME STEP 5684
 
 SOLVING FOR HEAD 

 NO OUTPUT CONTROL FOR STRESS PERIOD    2   TIME STEP 5685
 
 SOLVING FOR HEAD 

 NO OUTPUT CONTROL FOR STRESS PERIOD    2   TIME STEP 5686
 
 SOLVING FOR HEAD 

 NO OUTPUT CONTROL FOR STRESS PERIOD    2   TIME STEP 5687
 
 SOLVING FOR HEAD 

 NO OUTPUT CONTROL FOR STRESS PERIOD    2   TIME STEP 5688
 
 SOLVING FOR HEAD 

 NO OUTPUT CONTROL FOR STRESS PERIOD    2   TIME STEP 5689
 
 SOLVING FOR HEAD 

 NO OUTPUT CONTROL FOR STRESS PERIOD    2   TIME STEP 5690
 
 SOLVING FOR HEAD 

 NO OUTPUT CONTROL FOR STRESS PERIOD    2   TIME STEP 5691
 
 SOLVING FOR HEAD 

 NO OUTPUT CONTROL FOR STRESS PERIOD    2   TIME STEP 5692
 
 SOLVING FOR HEAD 

 NO OUTPUT CONTROL FOR STRESS PERIOD    2   TIME STEP 5693
 
 SOLVING FOR HEAD 

 NO OUTPUT CONTROL FOR STRESS PERIOD    2   TIME STEP 5694
 
 SOLVING FOR HEAD 

 NO OUTPUT CONTROL FOR STRESS PERIOD    2   TIME STEP 5695
 
 SOLVING FOR HEAD 

 NO OUTPUT CONTROL FOR STRESS PERIOD    2   TIME STEP 5696
 
 SOLVING FOR HEAD 

 NO OUTPUT CONTROL FOR STRESS PERIOD    2   TIME STEP 5697
 
 SOLVING FOR HEAD 

 NO OUTPUT CONTROL FOR STRESS PERIOD    2   TIME STEP 5698
 
 SOLVING FOR HEAD 

 NO OUTPUT CONTROL FOR STRESS PERIOD    2   TIME STEP 5699
 
 SOLVING FOR HEAD 

 NO OUTPUT CONTROL FOR STRESS PERIOD    2   TIME STEP 5700
 
 SOLVING FOR HEAD 

 NO OUTPUT CONTROL FOR STRESS PERIOD    2   TIME STEP 5701
 
 SOLVING FOR HEAD 

 NO OUTPUT CONTROL FOR STRESS PERIOD    2   TIME STEP 5702
 
 SOLVING FOR HEAD 

 NO OUTPUT CONTROL FOR STRESS PERIOD    2   TIME STEP 5703
 
 SOLVING FOR HEAD 

 NO OUTPUT CONTROL FOR STRESS PERIOD    2   TIME STEP 5704
 
 SOLVING FOR HEAD 

 NO OUTPUT CONTROL FOR STRESS PERIOD    2   TIME STEP 5705
 
 SOLVING FOR HEAD 

 NO OUTPUT CONTROL FOR STRESS PERIOD    2   TIME STEP 5706
 
 SOLVING FOR HEAD 

 NO OUTPUT CONTROL FOR STRESS PERIOD    2   TIME STEP 5707
 
 SOLVING FOR HEAD 

 NO OUTPUT CONTROL FOR STRESS PERIOD    2   TIME STEP 5708
 
 SOLVING FOR HEAD 

 NO OUTPUT CONTROL FOR STRESS PERIOD    2   TIME STEP 5709
 
 SOLVING FOR HEAD 

 NO OUTPUT CONTROL FOR STRESS PERIOD    2   TIME STEP 5710
 
 SOLVING FOR HEAD 

 NO OUTPUT CONTROL FOR STRESS PERIOD    2   TIME STEP 5711
 
 SOLVING FOR HEAD 

 NO OUTPUT CONTROL FOR STRESS PERIOD    2   TIME STEP 5712
 
 SOLVING FOR HEAD 

 NO OUTPUT CONTROL FOR STRESS PERIOD    2   TIME STEP 5713
 
 SOLVING FOR HEAD 

 NO OUTPUT CONTROL FOR STRESS PERIOD    2   TIME STEP 5714
 
 SOLVING FOR HEAD 

 NO OUTPUT CONTROL FOR STRESS PERIOD    2   TIME STEP 5715
 
 SOLVING FOR HEAD 

 NO OUTPUT CONTROL FOR STRESS PERIOD    2   TIME STEP 5716
 
 SOLVING FOR HEAD 

 NO OUTPUT CONTROL FOR STRESS PERIOD    2   TIME STEP 5717
 
 SOLVING FOR HEAD 

 NO OUTPUT CONTROL FOR STRESS PERIOD    2   TIME STEP 5718
 
 SOLVING FOR HEAD 

 NO OUTPUT CONTROL FOR STRESS PERIOD    2   TIME STEP 5719
 
 SOLVING FOR HEAD 

 NO OUTPUT CONTROL FOR STRESS PERIOD    2   TIME STEP 5720
 
 SOLVING FOR HEAD 

 NO OUTPUT CONTROL FOR STRESS PERIOD    2   TIME STEP 5721
 
 SOLVING FOR HEAD 

 NO OUTPUT CONTROL FOR STRESS PERIOD    2   TIME STEP 5722
 
 SOLVING FOR HEAD 

 NO OUTPUT CONTROL FOR STRESS PERIOD    2   TIME STEP 5723
 
 SOLVING FOR HEAD 

 NO OUTPUT CONTROL FOR STRESS PERIOD    2   TIME STEP 5724
 
 SOLVING FOR HEAD 

 NO OUTPUT CONTROL FOR STRESS PERIOD    2   TIME STEP 5725
 
 SOLVING FOR HEAD 

 NO OUTPUT CONTROL FOR STRESS PERIOD    2   TIME STEP 5726
 
 SOLVING FOR HEAD 

 NO OUTPUT CONTROL FOR STRESS PERIOD    2   TIME STEP 5727
 
 SOLVING FOR HEAD 

 NO OUTPUT CONTROL FOR STRESS PERIOD    2   TIME STEP 5728
 
 SOLVING FOR HEAD 

 NO OUTPUT CONTROL FOR STRESS PERIOD    2   TIME STEP 5729
 
 SOLVING FOR HEAD 

 NO OUTPUT CONTROL FOR STRESS PERIOD    2   TIME STEP 5730
 
 SOLVING FOR HEAD 

 NO OUTPUT CONTROL FOR STRESS PERIOD    2   TIME STEP 5731
 
 SOLVING FOR HEAD 

 NO OUTPUT CONTROL FOR STRESS PERIOD    2   TIME STEP 5732
 
 SOLVING FOR HEAD 

 NO OUTPUT CONTROL FOR STRESS PERIOD    2   TIME STEP 5733
 
 SOLVING FOR HEAD 

 NO OUTPUT CONTROL FOR STRESS PERIOD    2   TIME STEP 5734
 
 SOLVING FOR HEAD 

 NO OUTPUT CONTROL FOR STRESS PERIOD    2   TIME STEP 5735
 
 SOLVING FOR HEAD 

 NO OUTPUT CONTROL FOR STRESS PERIOD    2   TIME STEP 5736
 
 SOLVING FOR HEAD 

 NO OUTPUT CONTROL FOR STRESS PERIOD    2   TIME STEP 5737
 
 SOLVING FOR HEAD 

 NO OUTPUT CONTROL FOR STRESS PERIOD    2   TIME STEP 5738
 
 SOLVING FOR HEAD 

 NO OUTPUT CONTROL FOR STRESS PERIOD    2   TIME STEP 5739
 
 SOLVING FOR HEAD 

 NO OUTPUT CONTROL FOR STRESS PERIOD    2   TIME STEP 5740
 
 SOLVING FOR HEAD 

 NO OUTPUT CONTROL FOR STRESS PERIOD    2   TIME STEP 5741
 
 SOLVING FOR HEAD 

 NO OUTPUT CONTROL FOR STRESS PERIOD    2   TIME STEP 5742
 
 SOLVING FOR HEAD 

 NO OUTPUT CONTROL FOR STRESS PERIOD    2   TIME STEP 5743
 
 SOLVING FOR HEAD 

 NO OUTPUT CONTROL FOR STRESS PERIOD    2   TIME STEP 5744
 
 SOLVING FOR HEAD 

 NO OUTPUT CONTROL FOR STRESS PERIOD    2   TIME STEP 5745
 
 SOLVING FOR HEAD 

 NO OUTPUT CONTROL FOR STRESS PERIOD    2   TIME STEP 5746
 
 SOLVING FOR HEAD 

 NO OUTPUT CONTROL FOR STRESS PERIOD    2   TIME STEP 5747
 
 SOLVING FOR HEAD 

 NO OUTPUT CONTROL FOR STRESS PERIOD    2   TIME STEP 5748
 
 SOLVING FOR HEAD 

 NO OUTPUT CONTROL FOR STRESS PERIOD    2   TIME STEP 5749
 
 SOLVING FOR HEAD 

 NO OUTPUT CONTROL FOR STRESS PERIOD    2   TIME STEP 5750
 
 SOLVING FOR HEAD 

 NO OUTPUT CONTROL FOR STRESS PERIOD    2   TIME STEP 5751
 
 SOLVING FOR HEAD 

 NO OUTPUT CONTROL FOR STRESS PERIOD    2   TIME STEP 5752
 
 SOLVING FOR HEAD 

 NO OUTPUT CONTROL FOR STRESS PERIOD    2   TIME STEP 5753
 
 SOLVING FOR HEAD 

 NO OUTPUT CONTROL FOR STRESS PERIOD    2   TIME STEP 5754
 
 SOLVING FOR HEAD 

 NO OUTPUT CONTROL FOR STRESS PERIOD    2   TIME STEP 5755
 
 SOLVING FOR HEAD 

 NO OUTPUT CONTROL FOR STRESS PERIOD    2   TIME STEP 5756
 
 SOLVING FOR HEAD 

 NO OUTPUT CONTROL FOR STRESS PERIOD    2   TIME STEP 5757
 
 SOLVING FOR HEAD 

 NO OUTPUT CONTROL FOR STRESS PERIOD    2   TIME STEP 5758
 
 SOLVING FOR HEAD 

 NO OUTPUT CONTROL FOR STRESS PERIOD    2   TIME STEP 5759
 
 SOLVING FOR HEAD 

 NO OUTPUT CONTROL FOR STRESS PERIOD    2   TIME STEP 5760
 
 SOLVING FOR HEAD 

 NO OUTPUT CONTROL FOR STRESS PERIOD    2   TIME STEP 5761
 
 SOLVING FOR HEAD 

 NO OUTPUT CONTROL FOR STRESS PERIOD    2   TIME STEP 5762
 
 SOLVING FOR HEAD 

 NO OUTPUT CONTROL FOR STRESS PERIOD    2   TIME STEP 5763
 
 SOLVING FOR HEAD 

 NO OUTPUT CONTROL FOR STRESS PERIOD    2   TIME STEP 5764
 
 SOLVING FOR HEAD 

 NO OUTPUT CONTROL FOR STRESS PERIOD    2   TIME STEP 5765
 
 SOLVING FOR HEAD 

 NO OUTPUT CONTROL FOR STRESS PERIOD    2   TIME STEP 5766
 
 SOLVING FOR HEAD 

 NO OUTPUT CONTROL FOR STRESS PERIOD    2   TIME STEP 5767
 
 SOLVING FOR HEAD 

 NO OUTPUT CONTROL FOR STRESS PERIOD    2   TIME STEP 5768
 
 SOLVING FOR HEAD 

 NO OUTPUT CONTROL FOR STRESS PERIOD    2   TIME STEP 5769
 
 SOLVING FOR HEAD 

 NO OUTPUT CONTROL FOR STRESS PERIOD    2   TIME STEP 5770
 
 SOLVING FOR HEAD 

 NO OUTPUT CONTROL FOR STRESS PERIOD    2   TIME STEP 5771
 
 SOLVING FOR HEAD 

 NO OUTPUT CONTROL FOR STRESS PERIOD    2   TIME STEP 5772
 
 SOLVING FOR HEAD 

 NO OUTPUT CONTROL FOR STRESS PERIOD    2   TIME STEP 5773
 
 SOLVING FOR HEAD 

 NO OUTPUT CONTROL FOR STRESS PERIOD    2   TIME STEP 5774
 
 SOLVING FOR HEAD 

 NO OUTPUT CONTROL FOR STRESS PERIOD    2   TIME STEP 5775
 
 SOLVING FOR HEAD 

 NO OUTPUT CONTROL FOR STRESS PERIOD    2   TIME STEP 5776
 
 SOLVING FOR HEAD 

 NO OUTPUT CONTROL FOR STRESS PERIOD    2   TIME STEP 5777
 
 SOLVING FOR HEAD 

 NO OUTPUT CONTROL FOR STRESS PERIOD    2   TIME STEP 5778
 
 SOLVING FOR HEAD 

 NO OUTPUT CONTROL FOR STRESS PERIOD    2   TIME STEP 5779
 
 SOLVING FOR HEAD 

 NO OUTPUT CONTROL FOR STRESS PERIOD    2   TIME STEP 5780
 
 SOLVING FOR HEAD 

 NO OUTPUT CONTROL FOR STRESS PERIOD    2   TIME STEP 5781
 
 SOLVING FOR HEAD 

 NO OUTPUT CONTROL FOR STRESS PERIOD    2   TIME STEP 5782
 
 SOLVING FOR HEAD 

 NO OUTPUT CONTROL FOR STRESS PERIOD    2   TIME STEP 5783
 
 SOLVING FOR HEAD 

 NO OUTPUT CONTROL FOR STRESS PERIOD    2   TIME STEP 5784
 
 SOLVING FOR HEAD 

 NO OUTPUT CONTROL FOR STRESS PERIOD    2   TIME STEP 5785
 
 SOLVING FOR HEAD 

 NO OUTPUT CONTROL FOR STRESS PERIOD    2   TIME STEP 5786
 
 SOLVING FOR HEAD 

 NO OUTPUT CONTROL FOR STRESS PERIOD    2   TIME STEP 5787
 
 SOLVING FOR HEAD 

 NO OUTPUT CONTROL FOR STRESS PERIOD    2   TIME STEP 5788
 
 SOLVING FOR HEAD 

 NO OUTPUT CONTROL FOR STRESS PERIOD    2   TIME STEP 5789
 
 SOLVING FOR HEAD 

 NO OUTPUT CONTROL FOR STRESS PERIOD    2   TIME STEP 5790
 
 SOLVING FOR HEAD 

 NO OUTPUT CONTROL FOR STRESS PERIOD    2   TIME STEP 5791
 
 SOLVING FOR HEAD 

 NO OUTPUT CONTROL FOR STRESS PERIOD    2   TIME STEP 5792
 
 SOLVING FOR HEAD 

 NO OUTPUT CONTROL FOR STRESS PERIOD    2   TIME STEP 5793
 
 SOLVING FOR HEAD 

 NO OUTPUT CONTROL FOR STRESS PERIOD    2   TIME STEP 5794
 
 SOLVING FOR HEAD 

 NO OUTPUT CONTROL FOR STRESS PERIOD    2   TIME STEP 5795
 
 SOLVING FOR HEAD 

 NO OUTPUT CONTROL FOR STRESS PERIOD    2   TIME STEP 5796
 
 SOLVING FOR HEAD 

 NO OUTPUT CONTROL FOR STRESS PERIOD    2   TIME STEP 5797
 
 SOLVING FOR HEAD 

 NO OUTPUT CONTROL FOR STRESS PERIOD    2   TIME STEP 5798
 
 SOLVING FOR HEAD 

 NO OUTPUT CONTROL FOR STRESS PERIOD    2   TIME STEP 5799
 
 SOLVING FOR HEAD 

 NO OUTPUT CONTROL FOR STRESS PERIOD    2   TIME STEP 5800
 
 SOLVING FOR HEAD 

 NO OUTPUT CONTROL FOR STRESS PERIOD    2   TIME STEP 5801
 
 SOLVING FOR HEAD 

 NO OUTPUT CONTROL FOR STRESS PERIOD    2   TIME STEP 5802
 
 SOLVING FOR HEAD 

 NO OUTPUT CONTROL FOR STRESS PERIOD    2   TIME STEP 5803
 
 SOLVING FOR HEAD 

 NO OUTPUT CONTROL FOR STRESS PERIOD    2   TIME STEP 5804
 
 SOLVING FOR HEAD 

 NO OUTPUT CONTROL FOR STRESS PERIOD    2   TIME STEP 5805
 
 SOLVING FOR HEAD 

 NO OUTPUT CONTROL FOR STRESS PERIOD    2   TIME STEP 5806
 
 SOLVING FOR HEAD 

 NO OUTPUT CONTROL FOR STRESS PERIOD    2   TIME STEP 5807
 
 SOLVING FOR HEAD 

 NO OUTPUT CONTROL FOR STRESS PERIOD    2   TIME STEP 5808
 
 SOLVING FOR HEAD 

 NO OUTPUT CONTROL FOR STRESS PERIOD    2   TIME STEP 5809
 
 SOLVING FOR HEAD 

 NO OUTPUT CONTROL FOR STRESS PERIOD    2   TIME STEP 5810
 
 SOLVING FOR HEAD 

 NO OUTPUT CONTROL FOR STRESS PERIOD    2   TIME STEP 5811
 
 SOLVING FOR HEAD 

 NO OUTPUT CONTROL FOR STRESS PERIOD    2   TIME STEP 5812
 
 SOLVING FOR HEAD 

 NO OUTPUT CONTROL FOR STRESS PERIOD    2   TIME STEP 5813
 
 SOLVING FOR HEAD 

 NO OUTPUT CONTROL FOR STRESS PERIOD    2   TIME STEP 5814
 
 SOLVING FOR HEAD 

 NO OUTPUT CONTROL FOR STRESS PERIOD    2   TIME STEP 5815
 
 SOLVING FOR HEAD 

 NO OUTPUT CONTROL FOR STRESS PERIOD    2   TIME STEP 5816
 
 SOLVING FOR HEAD 

 NO OUTPUT CONTROL FOR STRESS PERIOD    2   TIME STEP 5817
 
 SOLVING FOR HEAD 

 NO OUTPUT CONTROL FOR STRESS PERIOD    2   TIME STEP 5818
 
 SOLVING FOR HEAD 

 NO OUTPUT CONTROL FOR STRESS PERIOD    2   TIME STEP 5819
 
 SOLVING FOR HEAD 

 NO OUTPUT CONTROL FOR STRESS PERIOD    2   TIME STEP 5820
 
 SOLVING FOR HEAD 

 NO OUTPUT CONTROL FOR STRESS PERIOD    2   TIME STEP 5821
 
 SOLVING FOR HEAD 

 NO OUTPUT CONTROL FOR STRESS PERIOD    2   TIME STEP 5822
 
 SOLVING FOR HEAD 

 NO OUTPUT CONTROL FOR STRESS PERIOD    2   TIME STEP 5823
 
 SOLVING FOR HEAD 

 NO OUTPUT CONTROL FOR STRESS PERIOD    2   TIME STEP 5824
 
 SOLVING FOR HEAD 

 NO OUTPUT CONTROL FOR STRESS PERIOD    2   TIME STEP 5825
 
 SOLVING FOR HEAD 

 NO OUTPUT CONTROL FOR STRESS PERIOD    2   TIME STEP 5826
 
 SOLVING FOR HEAD 

 NO OUTPUT CONTROL FOR STRESS PERIOD    2   TIME STEP 5827
 
 SOLVING FOR HEAD 

 NO OUTPUT CONTROL FOR STRESS PERIOD    2   TIME STEP 5828
 
 SOLVING FOR HEAD 

 NO OUTPUT CONTROL FOR STRESS PERIOD    2   TIME STEP 5829
 
 SOLVING FOR HEAD 

 NO OUTPUT CONTROL FOR STRESS PERIOD    2   TIME STEP 5830
 
 SOLVING FOR HEAD 

 NO OUTPUT CONTROL FOR STRESS PERIOD    2   TIME STEP 5831
 
 SOLVING FOR HEAD 

 NO OUTPUT CONTROL FOR STRESS PERIOD    2   TIME STEP 5832
 
 SOLVING FOR HEAD 

 NO OUTPUT CONTROL FOR STRESS PERIOD    2   TIME STEP 5833
 
 SOLVING FOR HEAD 

 NO OUTPUT CONTROL FOR STRESS PERIOD    2   TIME STEP 5834
 
 SOLVING FOR HEAD 

 NO OUTPUT CONTROL FOR STRESS PERIOD    2   TIME STEP 5835
 
 SOLVING FOR HEAD 

 NO OUTPUT CONTROL FOR STRESS PERIOD    2   TIME STEP 5836
 
 SOLVING FOR HEAD 

 NO OUTPUT CONTROL FOR STRESS PERIOD    2   TIME STEP 5837
 
 SOLVING FOR HEAD 

 NO OUTPUT CONTROL FOR STRESS PERIOD    2   TIME STEP 5838
 
 SOLVING FOR HEAD 

 NO OUTPUT CONTROL FOR STRESS PERIOD    2   TIME STEP 5839
 
 SOLVING FOR HEAD 

 NO OUTPUT CONTROL FOR STRESS PERIOD    2   TIME STEP 5840
 
 SOLVING FOR HEAD 

 NO OUTPUT CONTROL FOR STRESS PERIOD    2   TIME STEP 5841
 
 SOLVING FOR HEAD 

 NO OUTPUT CONTROL FOR STRESS PERIOD    2   TIME STEP 5842
 
 SOLVING FOR HEAD 

 NO OUTPUT CONTROL FOR STRESS PERIOD    2   TIME STEP 5843
 
 SOLVING FOR HEAD 

 OUTPUT CONTROL FOR STRESS PERIOD    2   TIME STEP 5844
    PRINT BUDGET
    PRINT HEAD FOR ALL LAYERS
    SAVE HEAD FOR ALL LAYERS



 STREAM LISTING     PERIOD      2   STEP     5844

 LAYER ROW COL. STREAM  RCH.   FLOW INTO    STREAM     FLOW OUT OF   OVRLND.    DIRECT     STREAM      STREAM      STREAM     STREAM  STREAMBED   FLOW TO   CHNG. UNSAT. 
                SEG.NO.  NO.   STRM. RCH.    LOSS       STRM. RCH.   RUNOFF     PRECIP       ET         HEAD        DEPTH      WIDTH  CONDCTNC.   WAT. TAB.

   1   39   15     1     1    0.0000E+00 -3.7950E+03   3.7950E+03  0.000E+00  0.000E+00  0.000E+00  2.35652E+03  1.963E-02  3.000E+00  1.530E+03  0.000E+00  0.000E+00
   1   39   16     1     2    3.7950E+03  3.5470E+02   3.4403E+03  0.000E+00  0.000E+00  0.000E+00  2.35253E+03  2.548E-02  3.000E+00  6.750E+02  0.000E+00  0.000E+00
   1   39   17     1     3    3.4403E+03 -4.2866E+02   3.8689E+03  0.000E+00  0.000E+00  0.000E+00  2.34552E+03  2.372E-02  3.000E+00  9.000E+02  0.000E+00  0.000E+00
   1   38   17     1     4    3.8689E+03 -6.6331E+02   4.5322E+03  0.000E+00  0.000E+00  0.000E+00  2.34253E+03  2.597E-02  3.000E+00  4.500E+02  0.000E+00  0.000E+00
   1   38   18     1     5    4.5322E+03 -7.1783E+02   5.2501E+03  0.000E+00  0.000E+00  0.000E+00  2.33653E+03  3.083E-02  3.000E+00  1.530E+03  0.000E+00  0.000E+00
   1   38   19     1     6    5.2501E+03  3.5847E+02   4.8916E+03  0.000E+00  0.000E+00  0.000E+00  2.33253E+03  3.106E-02  3.000E+00  6.750E+02  0.000E+00  0.000E+00
   1   38   20     1     7    4.8916E+03 -1.9833E+03   6.8749E+03  0.000E+00  0.000E+00  0.000E+00  2.32453E+03  3.090E-02  3.000E+00  1.350E+03  0.000E+00  0.000E+00
   1   38   21     1     8    6.8749E+03 -1.9766E+03   8.8515E+03  0.000E+00  0.000E+00  0.000E+00  2.31654E+03  3.584E-02  3.000E+00  1.350E+03  0.000E+00  0.000E+00
   1   38   22     1     9    8.8515E+03 -2.2385E+03   1.1090E+04  0.000E+00  0.000E+00  0.000E+00  2.30654E+03  3.694E-02  3.000E+00  1.530E+03  0.000E+00  0.000E+00
   1   38   23     1    10    1.1090E+04 -8.3478E+03   1.9438E+04  0.000E+00  0.000E+00  0.000E+00  2.28854E+03  4.389E-02  3.000E+00  1.530E+03  0.000E+00  0.000E+00
   1   37   24     1    11    1.9438E+04 -6.9008E+02   2.0128E+04  0.000E+00  0.000E+00  0.000E+00  2.26855E+03  4.897E-02  3.000E+00  1.530E+03  0.000E+00  0.000E+00
   1   37   25     1    12    2.0128E+04 -6.9600E+03   2.7088E+04  0.000E+00  0.000E+00  0.000E+00  2.24756E+03  5.554E-02  3.000E+00  1.080E+03  0.000E+00  0.000E+00
   1   36   25     1    13    2.7088E+04 -3.3470E+03   3.0435E+04  0.000E+00  0.000E+00  0.000E+00  2.24056E+03  6.226E-02  3.000E+00  4.500E+02  0.000E+00  0.000E+00
   1   36   26     1    14    3.0435E+04 -5.8665E+03   3.6301E+04  0.000E+00  0.000E+00  0.000E+00  2.22657E+03  6.806E-02  3.000E+00  1.080E+03  0.000E+00  0.000E+00
   1   35   26     1    15    3.6301E+04 -1.9885E+03   3.8290E+04  0.000E+00  0.000E+00  0.000E+00  2.21958E+03  8.101E-02  3.000E+00  4.500E+02  0.000E+00  0.000E+00
   1   35   27     1    16    3.8290E+04 -5.6409E+02   3.8854E+04  0.000E+00  0.000E+00  0.000E+00  2.21058E+03  8.215E-02  3.000E+00  1.350E+03  0.000E+00  0.000E+00
   1   36   28     1    17    3.8854E+04 -6.3485E+02   3.9489E+04  0.000E+00  0.000E+00  0.000E+00  2.19658E+03  8.506E-02  3.000E+00  1.530E+03  0.000E+00  0.000E+00
   1   36   29     1    18    3.9489E+04 -5.5753E+02   4.0046E+04  0.000E+00  0.000E+00  0.000E+00  2.18459E+03  8.702E-02  3.000E+00  1.350E+03  0.000E+00  0.000E+00
   1   36   30     1    19    4.0046E+04 -5.5513E+02   4.0602E+04  0.000E+00  0.000E+00  0.000E+00  2.17259E+03  8.879E-02  3.000E+00  1.350E+03  0.000E+00  0.000E+00
   1   36   31     1    20    4.0602E+04  4.4862E+02   4.0153E+04  0.000E+00  0.000E+00  0.000E+00  2.16159E+03  8.643E-02  3.000E+00  7.650E+02  0.000E+00  0.000E+00
   1   36   32     1    21    4.0153E+04 -1.8817E+02   4.0341E+04  0.000E+00  0.000E+00  0.000E+00  2.15058E+03  8.185E-02  3.000E+00  4.500E+02  0.000E+00  0.000E+00
   1   35   32     1    22    4.0341E+04 -4.7657E+03   4.5107E+04  0.000E+00  0.000E+00  0.000E+00  2.14259E+03  8.735E-02  3.000E+00  1.080E+03  0.000E+00  0.000E+00
   1   35   33     1    23    4.5107E+04 -1.8514E+02   4.5292E+04  0.000E+00  0.000E+00  0.000E+00  2.13559E+03  8.859E-02  3.000E+00  4.500E+02  0.000E+00  0.000E+00
   1   34   33     1    24    4.5292E+04 -3.6799E+03   4.8972E+04  0.000E+00  0.000E+00  0.000E+00  2.12659E+03  9.265E-02  3.000E+00  1.080E+03  0.000E+00  0.000E+00
   1   34   34     1    25    4.8972E+04 -1.7903E+02   4.9151E+04  0.000E+00  0.000E+00  0.000E+00  2.12060E+03  1.022E-01  3.000E+00  4.500E+02  0.000E+00  0.000E+00
   1   33   34     1    26    4.9151E+04 -3.5823E+02   4.9509E+04  0.000E+00  0.000E+00  0.000E+00  2.11560E+03  1.020E-01  3.000E+00  9.000E+02  0.000E+00  0.000E+00
   1   33   35     1    27    4.9509E+04 -4.2759E+02   4.9937E+04  0.000E+00  0.000E+00  0.000E+00  2.10760E+03  1.041E-01  3.000E+00  1.080E+03  0.000E+00  0.000E+00
   1   32   35     1    28    4.9937E+04 -6.2895E+02   5.0566E+04  0.000E+00  0.000E+00  0.000E+00  2.10260E+03  1.023E-01  3.000E+00  4.500E+02  0.000E+00  0.000E+00
   1   32   36     1    29    5.0566E+04 -5.9793E+02   5.1164E+04  0.000E+00  0.000E+00  0.000E+00  2.09361E+03  1.092E-01  3.000E+00  1.530E+03  0.000E+00  0.000E+00
   1   32   37     1    30    5.1164E+04 -5.1242E+02   5.1676E+04  0.000E+00  0.000E+00  0.000E+00  2.08662E+03  1.204E-01  3.000E+00  1.350E+03  0.000E+00  0.000E+00
   1   53   37     2     1    0.0000E+00 -6.6531E+02   6.6531E+02  0.000E+00  0.000E+00  0.000E+00  2.14751E+03  7.175E-03  3.000E+00  1.350E+03  0.000E+00  0.000E+00
   1   52   37     2     2    6.6531E+02  2.7507E+02   3.9024E+02  0.000E+00  0.000E+00  0.000E+00  2.14451E+03  9.389E-03  3.000E+00  5.400E+02  0.000E+00  0.000E+00
   1   52   38     2     3    3.9024E+02 -6.7054E+02   1.0608E+03  0.000E+00  0.000E+00  0.000E+00  2.14251E+03  9.908E-03  3.000E+00  4.500E+02  0.000E+00  0.000E+00
   1   51   38     2     4    1.0608E+03 -7.4063E+02   1.8014E+03  0.000E+00  0.000E+00  0.000E+00  2.13752E+03  1.593E-02  3.000E+00  1.530E+03  0.000E+00  0.000E+00
   1   50   38     2     5    1.8014E+03 -4.2833E+02   2.2297E+03  0.000E+00  0.000E+00  0.000E+00  2.13552E+03  2.408E-02  3.000E+00  9.000E+02  0.000E+00  0.000E+00
   1   50   39     2     6    2.2297E+03 -2.1381E+02   2.4436E+03  0.000E+00  0.000E+00  0.000E+00  2.13452E+03  2.486E-02  3.000E+00  4.500E+02  0.000E+00  0.000E+00
   1   49   39     2     7    2.4436E+03  3.5350E+02   2.0901E+03  0.000E+00  0.000E+00  0.000E+00  2.13252E+03  2.370E-02  3.000E+00  6.750E+02  0.000E+00  0.000E+00
   1   48   39     2     8    2.0901E+03  3.9942E+02   1.6906E+03  0.000E+00  0.000E+00  0.000E+00  2.12952E+03  2.212E-02  3.000E+00  7.650E+02  0.000E+00  0.000E+00
   1   47   39     2     9    1.6906E+03  2.3434E+02   1.4563E+03  0.000E+00  0.000E+00  0.000E+00  2.12752E+03  2.075E-02  3.000E+00  4.500E+02  0.000E+00  0.000E+00
   1   47   40     2    10    1.4563E+03 -6.6547E+02   2.1218E+03  0.000E+00  0.000E+00  0.000E+00  2.12652E+03  2.118E-02  3.000E+00  4.500E+02  0.000E+00  0.000E+00
   1   46   40     2    11    2.1218E+03 -6.4184E+02   2.7636E+03  0.000E+00  0.000E+00  0.000E+00  2.12452E+03  2.456E-02  3.000E+00  1.350E+03  0.000E+00  0.000E+00
   1   45   40     2    12    2.7636E+03 -6.6279E+02   3.4264E+03  0.000E+00  0.000E+00  0.000E+00  2.12253E+03  2.713E-02  3.000E+00  4.500E+02  0.000E+00  0.000E+00
   1   45   39     2    13    3.4264E+03 -1.3196E+03   4.7460E+03  0.000E+00  0.000E+00  0.000E+00  2.12053E+03  3.375E-02  3.000E+00  9.000E+02  0.000E+00  0.000E+00
   1   44   39     2    14    4.7460E+03  4.0863E+02   4.3374E+03  0.000E+00  0.000E+00  0.000E+00  2.11853E+03  3.415E-02  3.000E+00  7.650E+02  0.000E+00  0.000E+00
   1   43   38     2    15    4.3374E+03  4.0511E+02   3.9323E+03  0.000E+00  0.000E+00  0.000E+00  2.11353E+03  2.956E-02  3.000E+00  7.650E+02  0.000E+00  0.000E+00
   1   42   38     2    16    3.9323E+03 -6.3343E+02   4.5657E+03  0.000E+00  0.000E+00  0.000E+00  2.10853E+03  3.079E-02  3.000E+00  1.350E+03  0.000E+00  0.000E+00
   1   41   38     2    17    4.5657E+03 -7.0973E+02   5.2755E+03  0.000E+00  0.000E+00  0.000E+00  2.10454E+03  3.612E-02  3.000E+00  1.530E+03  0.000E+00  0.000E+00
   1   40   38     2    18    5.2755E+03 -2.1038E+02   5.4858E+03  0.000E+00  0.000E+00  0.000E+00  2.10253E+03  3.249E-02  3.000E+00  4.500E+02  0.000E+00  0.000E+00
   1   40   39     2    19    5.4858E+03 -4.9131E+03   1.0399E+04  0.000E+00  0.000E+00  0.000E+00  2.09754E+03  4.104E-02  3.000E+00  9.000E+02  0.000E+00  0.000E+00
   1   39   39     2    20    1.0399E+04  4.2181E+02   9.9771E+03  0.000E+00  0.000E+00  0.000E+00  2.09455E+03  5.139E-02  3.000E+00  7.650E+02  0.000E+00  0.000E+00
   1   38   39     2    21    9.9771E+03 -2.2204E+03   1.2197E+04  0.000E+00  0.000E+00  0.000E+00  2.08855E+03  4.879E-02  3.000E+00  1.530E+03  0.000E+00  0.000E+00
   1   37   40     2    22    1.2197E+04 -6.8723E+02   1.2885E+04  0.000E+00  0.000E+00  0.000E+00  2.08055E+03  5.083E-02  3.000E+00  1.530E+03  0.000E+00  0.000E+00
   1   36   40     2    23    1.2885E+04 -2.1981E+03   1.5083E+04  0.000E+00  0.000E+00  0.000E+00  2.07456E+03  5.763E-02  3.000E+00  9.000E+02  0.000E+00  0.000E+00
   1   36   41     2    24    1.5083E+04 -6.4460E+02   1.5727E+04  0.000E+00  0.000E+00  0.000E+00  2.07257E+03  6.756E-02  3.000E+00  4.500E+02  0.000E+00  0.000E+00
   1   35   41     2    25    1.5727E+04 -6.5263E+02   1.6380E+04  0.000E+00  0.000E+00  0.000E+00  2.06957E+03  7.344E-02  3.000E+00  1.530E+03  0.000E+00  0.000E+00
   1   34   41     2    26    1.6380E+04  3.8512E+02   1.5995E+04  0.000E+00  0.000E+00  0.000E+00  2.06657E+03  7.055E-02  3.000E+00  6.750E+02  0.000E+00  0.000E+00
   1   33   41     2    27    1.5995E+04  3.8292E+02   1.5612E+04  0.000E+00  0.000E+00  0.000E+00  2.06157E+03  6.729E-02  3.000E+00  6.750E+02  0.000E+00  0.000E+00
   1   32   41     2    28    1.5612E+04 -6.6509E+02   1.6277E+04  0.000E+00  0.000E+00  0.000E+00  2.05757E+03  6.530E-02  3.000E+00  1.530E+03  0.000E+00  0.000E+00
   1   31   42     2    29    1.6277E+04 -7.4660E+02   1.7024E+04  0.000E+00  0.000E+00  0.000E+00  2.04956E+03  6.339E-02  3.000E+00  1.710E+03  0.000E+00  0.000E+00
   1   31   33     3     1    0.0000E+00 -3.3536E+03   3.3536E+03  0.000E+00  0.000E+00  0.000E+00  2.11652E+03  1.585E-02  3.000E+00  1.350E+03  0.000E+00  0.000E+00
   1   31   34     3     2    3.3536E+03  3.5182E+02   3.0018E+03  0.000E+00  0.000E+00  0.000E+00  2.11052E+03  2.121E-02  3.000E+00  6.750E+02  0.000E+00  0.000E+00
   1   31   35     3     3    3.0018E+03 -7.3139E+02   3.7332E+03  0.000E+00  0.000E+00  0.000E+00  2.09952E+03  2.196E-02  3.000E+00  1.530E+03  0.000E+00  0.000E+00
   1   31   36     3     4    3.7332E+03 -2.2499E+03   5.9831E+03  0.000E+00  0.000E+00  0.000E+00  2.09253E+03  2.948E-02  3.000E+00  1.530E+03  0.000E+00  0.000E+00
   1   31   37     3     5    5.9831E+03 -6.2888E+02   6.6120E+03  0.000E+00  0.000E+00  0.000E+00  2.08553E+03  3.416E-02  3.000E+00  1.350E+03  0.000E+00  0.000E+00
   1   48   48     4     1    0.0000E+00 -2.0028E+03   2.0028E+03  0.000E+00  0.000E+00  0.000E+00  2.11352E+03  1.647E-02  3.000E+00  1.350E+03  0.000E+00  0.000E+00
   1   47   48     4     2    2.0028E+03 -7.2743E+02   2.7302E+03  0.000E+00  0.000E+00  0.000E+00  2.11152E+03  2.455E-02  3.000E+00  1.530E+03  0.000E+00  0.000E+00
   1   46   48     4     3    2.7302E+03 -6.6347E+02   3.3937E+03  0.000E+00  0.000E+00  0.000E+00  2.10953E+03  2.563E-02  3.000E+00  4.500E+02  0.000E+00  0.000E+00
   1   46   47     4     4    3.3937E+03 -1.3200E+03   4.7137E+03  0.000E+00  0.000E+00  0.000E+00  2.10753E+03  3.328E-02  3.000E+00  9.000E+02  0.000E+00  0.000E+00
   1   45   47     4     5    4.7137E+03  3.6247E+02   4.3512E+03  0.000E+00  0.000E+00  0.000E+00  2.10554E+03  3.699E-02  3.000E+00  6.750E+02  0.000E+00  0.000E+00
   1   44   47     4     6    4.3512E+03  4.0651E+02   3.9447E+03  0.000E+00  0.000E+00  0.000E+00  2.10253E+03  3.139E-02  3.000E+00  7.650E+02  0.000E+00  0.000E+00
   1   43   47     4     7    3.9447E+03 -1.9855E+03   5.9302E+03  0.000E+00  0.000E+00  0.000E+00  2.09753E+03  2.928E-02  3.000E+00  1.350E+03  0.000E+00  0.000E+00
   1   42   47     4     8    5.9302E+03 -3.3285E+03   9.2587E+03  0.000E+00  0.000E+00  0.000E+00  2.08853E+03  3.447E-02  3.000E+00  1.350E+03  0.000E+00  0.000E+00
   1   41   47     4     9    9.2587E+03 -1.3123E+03   1.0571E+04  0.000E+00  0.000E+00  0.000E+00  2.08054E+03  4.185E-02  3.000E+00  9.000E+02  0.000E+00  0.000E+00
   1   41   48     4    10    1.0571E+04 -1.1050E+03   1.1676E+04  0.000E+00  0.000E+00  0.000E+00  2.07754E+03  4.441E-02  3.000E+00  4.500E+02  0.000E+00  0.000E+00
   1   40   48     4    11    1.1676E+04 -6.1064E+02   1.2287E+04  0.000E+00  0.000E+00  0.000E+00  2.07055E+03  4.768E-02  3.000E+00  1.350E+03  0.000E+00  0.000E+00
   1   39   48     4    12    1.2287E+04 -4.6515E+03   1.6938E+04  0.000E+00  0.000E+00  0.000E+00  2.06455E+03  5.447E-02  3.000E+00  1.350E+03  0.000E+00  0.000E+00
   1   38   47     4    13    1.6938E+04  3.7594E+02   1.6562E+04  0.000E+00  0.000E+00  0.000E+00  2.05556E+03  5.695E-02  3.000E+00  6.750E+02  0.000E+00  0.000E+00
   1   37   47     4    14    1.6562E+04 -5.9967E+02   1.7162E+04  0.000E+00  0.000E+00  0.000E+00  2.04756E+03  5.580E-02  3.000E+00  1.350E+03  0.000E+00  0.000E+00
   1   36   48     4    15    1.7162E+04 -6.7525E+02   1.7837E+04  0.000E+00  0.000E+00  0.000E+00  2.03656E+03  5.866E-02  3.000E+00  1.530E+03  0.000E+00  0.000E+00
   1   35   48     4    16    1.7837E+04 -1.9708E+02   1.8034E+04  0.000E+00  0.000E+00  0.000E+00  2.03256E+03  6.205E-02  3.000E+00  4.500E+02  0.000E+00  0.000E+00
   1   35   49     4    17    1.8034E+04 -3.9690E+02   1.8431E+04  0.000E+00  0.000E+00  0.000E+00  2.02756E+03  5.900E-02  3.000E+00  9.000E+02  0.000E+00  0.000E+00
   1   34   49     4    18    1.8431E+04 -1.5491E+03   1.9980E+04  0.000E+00  0.000E+00  0.000E+00  2.02157E+03  6.564E-02  3.000E+00  1.080E+03  0.000E+00  0.000E+00
   1   34   50     4    19    1.9980E+04 -6.4158E+02   2.0622E+04  0.000E+00  0.000E+00  0.000E+00  2.01857E+03  7.427E-02  3.000E+00  4.500E+02  0.000E+00  0.000E+00
   1   33   50     4    20    2.0622E+04  4.9148E+02   2.0130E+04  0.000E+00  0.000E+00  0.000E+00  2.01457E+03  7.483E-02  3.000E+00  8.550E+02  0.000E+00  0.000E+00
   1   55   72     5     1    0.0000E+00 -3.3507E+03   3.3507E+03  0.000E+00  0.000E+00  0.000E+00  2.00152E+03  1.797E-02  3.000E+00  1.350E+03  0.000E+00  0.000E+00
   1   54   72     5     2    3.3507E+03 -6.3763E+02   3.9884E+03  0.000E+00  0.000E+00  0.000E+00  1.99753E+03  2.768E-02  3.000E+00  1.350E+03  0.000E+00  0.000E+00
   1   53   72     5     3    3.9884E+03  3.5442E+02   3.6340E+03  0.000E+00  0.000E+00  0.000E+00  1.99253E+03  2.507E-02  3.000E+00  6.750E+02  0.000E+00  0.000E+00
   1   52   72     5     4    3.6340E+03 -7.2569E+02   4.3596E+03  0.000E+00  0.000E+00  0.000E+00  1.98353E+03  2.569E-02  3.000E+00  1.530E+03  0.000E+00  0.000E+00
   1   51   72     5     5    4.3596E+03  4.0279E+02   3.9569E+03  0.000E+00  0.000E+00  0.000E+00  1.97753E+03  2.652E-02  3.000E+00  7.650E+02  0.000E+00  0.000E+00
   1   50   73     5     6    3.9569E+03 -7.2349E+02   4.6803E+03  0.000E+00  0.000E+00  0.000E+00  1.96853E+03  2.713E-02  3.000E+00  1.530E+03  0.000E+00  0.000E+00
   1   49   73     5     7    4.6803E+03 -7.1889E+02   5.3992E+03  0.000E+00  0.000E+00  0.000E+00  1.96253E+03  3.014E-02  3.000E+00  1.530E+03  0.000E+00  0.000E+00
   1   48   73     5     8    5.3992E+03 -2.1076E+02   5.6100E+03  0.000E+00  0.000E+00  0.000E+00  1.95653E+03  3.164E-02  3.000E+00  4.500E+02  0.000E+00  0.000E+00
   1   48   74     5     9    5.6100E+03 -2.2154E+03   7.8254E+03  0.000E+00  0.000E+00  0.000E+00  1.95454E+03  3.845E-02  3.000E+00  9.000E+02  0.000E+00  0.000E+00
   1   47   74     5    10    7.8254E+03 -7.0017E+02   8.5255E+03  0.000E+00  0.000E+00  0.000E+00  1.94954E+03  4.238E-02  3.000E+00  1.530E+03  0.000E+00  0.000E+00
   1   46   75     5    11    8.5255E+03  4.1752E+02   8.1080E+03  0.000E+00  0.000E+00  0.000E+00  1.94355E+03  4.578E-02  3.000E+00  7.650E+02  0.000E+00  0.000E+00
   1   45   75     5    12    8.1080E+03  1.2294E+02   7.9851E+03  0.000E+00  0.000E+00  0.000E+00  1.94155E+03  4.639E-02  3.000E+00  2.250E+02  0.000E+00  0.000E+00
   1   45   76     5    13    7.9851E+03  2.9371E+02   7.6914E+03  0.000E+00  0.000E+00  0.000E+00  1.93854E+03  4.391E-02  3.000E+00  5.400E+02  0.000E+00  0.000E+00
   1   44   76     5    14    7.6914E+03  1.2291E+02   7.5685E+03  0.000E+00  0.000E+00  0.000E+00  1.93655E+03  4.626E-02  3.000E+00  2.250E+02  0.000E+00  0.000E+00
   1   45   62     6     1    0.0000E+00 -2.0069E+03   2.0069E+03  0.000E+00  0.000E+00  0.000E+00  2.00451E+03  1.340E-02  3.000E+00  1.350E+03  0.000E+00  0.000E+00
   1   44   62     6     2    2.0069E+03 -7.3348E+02   2.7404E+03  0.000E+00  0.000E+00  0.000E+00  1.99952E+03  2.060E-02  3.000E+00  1.530E+03  0.000E+00  0.000E+00
   1   43   62     6     3    2.7404E+03  1.1696E+02   2.6234E+03  0.000E+00  0.000E+00  0.000E+00  1.99552E+03  1.984E-02  3.000E+00  2.250E+02  0.000E+00  0.000E+00
   1   43   63     6     4    2.6234E+03 -1.3290E+03   3.9524E+03  0.000E+00  0.000E+00  0.000E+00  1.99152E+03  2.333E-02  3.000E+00  9.000E+02  0.000E+00  0.000E+00
   1   42   63     6     5    3.9524E+03 -7.2245E+02   4.6749E+03  0.000E+00  0.000E+00  0.000E+00  1.98553E+03  2.781E-02  3.000E+00  1.530E+03  0.000E+00  0.000E+00
   1   41   63     6     6    4.6749E+03  3.5675E+02   4.3181E+03  0.000E+00  0.000E+00  0.000E+00  1.97953E+03  2.851E-02  3.000E+00  6.750E+02  0.000E+00  0.000E+00
   1   40   63     6     7    4.3181E+03 -7.2033E+02   5.0385E+03  0.000E+00  0.000E+00  0.000E+00  1.97353E+03  2.920E-02  3.000E+00  1.530E+03  0.000E+00  0.000E+00
   1   24   55     7     1    0.0000E+00 -2.2373E+03   2.2373E+03  0.000E+00  0.000E+00  0.000E+00  2.03351E+03  1.410E-02  3.000E+00  9.000E+02  0.000E+00  0.000E+00
   1   25   55     7     2    2.2373E+03  1.1649E+02   2.1208E+03  0.000E+00  0.000E+00  0.000E+00  2.03152E+03  1.772E-02  3.000E+00  2.250E+02  0.000E+00  0.000E+00
   1   25   56     7     3    2.1208E+03 -1.3310E+03   3.4518E+03  0.000E+00  0.000E+00  0.000E+00  2.02652E+03  2.112E-02  3.000E+00  9.000E+02  0.000E+00  0.000E+00
   1   26   56     7     4    3.4518E+03 -7.2193E+02   4.1737E+03  0.000E+00  0.000E+00  0.000E+00  2.02253E+03  2.815E-02  3.000E+00  1.530E+03  0.000E+00  0.000E+00
   1   27   56     7     5    4.1737E+03 -6.3379E+02   4.8075E+03  0.000E+00  0.000E+00  0.000E+00  2.01753E+03  3.053E-02  3.000E+00  1.350E+03  0.000E+00  0.000E+00
   1   28   57     7     6    4.8075E+03 -6.3088E+02   5.4384E+03  0.000E+00  0.000E+00  0.000E+00  2.01253E+03  3.268E-02  3.000E+00  1.350E+03  0.000E+00  0.000E+00
   1   29   57     7     7    5.4384E+03 -6.2770E+02   6.0661E+03  0.000E+00  0.000E+00  0.000E+00  2.00754E+03  3.504E-02  3.000E+00  1.350E+03  0.000E+00  0.000E+00
   1   30   57     7     8    6.0661E+03 -6.2294E+02   6.6890E+03  0.000E+00  0.000E+00  0.000E+00  2.00254E+03  3.856E-02  3.000E+00  1.350E+03  0.000E+00  0.000E+00
   1   31   57     7     9    6.6890E+03 -6.1928E+02   7.3083E+03  0.000E+00  0.000E+00  0.000E+00  1.99854E+03  4.128E-02  3.000E+00  1.350E+03  0.000E+00  0.000E+00
   1   32   57     7    10    7.3083E+03 -6.9352E+02   8.0018E+03  0.000E+00  0.000E+00  0.000E+00  1.99355E+03  4.672E-02  3.000E+00  1.530E+03  0.000E+00  0.000E+00
   1   33   57     7    11    8.0018E+03  3.0018E+02   7.7017E+03  0.000E+00  0.000E+00  0.000E+00  1.99156E+03  5.589E-02  3.000E+00  5.400E+02  0.000E+00  0.000E+00
   1   33   58     7    12    7.7017E+03 -2.0529E+02   7.9070E+03  0.000E+00  0.000E+00  0.000E+00  1.99054E+03  4.379E-02  3.000E+00  4.500E+02  0.000E+00  0.000E+00
   1   34   58     7    13    7.9070E+03 -4.9408E+02   8.4010E+03  0.000E+00  0.000E+00  0.000E+00  1.98654E+03  4.252E-02  3.000E+00  1.080E+03  0.000E+00  0.000E+00
   1   34   59     7    14    8.4010E+03 -6.5308E+02   9.0541E+03  0.000E+00  0.000E+00  0.000E+00  1.98455E+03  4.870E-02  3.000E+00  4.500E+02  0.000E+00  0.000E+00
   1   35   59     7    15    9.0541E+03  4.2006E+02   8.6341E+03  0.000E+00  0.000E+00  0.000E+00  1.98155E+03  4.909E-02  3.000E+00  7.650E+02  0.000E+00  0.000E+00
   1   36   59     7    16    8.6341E+03  3.6930E+02   8.2648E+03  0.000E+00  0.000E+00  0.000E+00  1.97755E+03  4.712E-02  3.000E+00  6.750E+02  0.000E+00  0.000E+00
   1   37   60     7    17    8.2648E+03 -2.4807E+03   1.0745E+04  0.000E+00  0.000E+00  0.000E+00  1.97255E+03  4.929E-02  3.000E+00  1.710E+03  0.000E+00  0.000E+00
   1   23   71     8     1    0.0000E+00  0.0000E+00   0.0000E+00  0.000E+00  0.000E+00  0.000E+00  2.05250E+03  0.000E+00  3.000E+00  6.750E+02  0.000E+00  0.000E+00
   1   24   71     8     2    0.0000E+00 -7.5254E+02   7.5254E+02  0.000E+00  0.000E+00  0.000E+00  2.04851E+03  8.146E-03  3.000E+00  1.530E+03  0.000E+00  0.000E+00
   1   25   71     8     3    7.5254E+02  3.4619E+02   4.0635E+02  0.000E+00  0.000E+00  0.000E+00  2.04651E+03  1.287E-02  3.000E+00  6.750E+02  0.000E+00  0.000E+00
   1   26   71     8     4    4.0635E+02 -7.3799E+02   1.1443E+03  0.000E+00  0.000E+00  0.000E+00  2.04552E+03  1.765E-02  3.000E+00  1.530E+03  0.000E+00  0.000E+00
   1   27   72     8     5    1.1443E+03 -7.2689E+02   1.8712E+03  0.000E+00  0.000E+00  0.000E+00  2.04452E+03  2.491E-02  3.000E+00  1.530E+03  0.000E+00  0.000E+00
   1   27   73     8     6    1.8712E+03 -2.0096E+03   3.8808E+03  0.000E+00  0.000E+00  0.000E+00  2.04353E+03  3.432E-02  3.000E+00  4.500E+02  0.000E+00  0.000E+00
   1   28   73     8     7    3.8808E+03 -2.2169E+03   6.0977E+03  0.000E+00  0.000E+00  0.000E+00  2.04255E+03  5.106E-02  3.000E+00  1.530E+03  0.000E+00  0.000E+00
   1   29   73     8     8    6.0977E+03 -3.2829E+03   9.3806E+03  0.000E+00  0.000E+00  0.000E+00  2.04157E+03  6.821E-02  3.000E+00  1.350E+03  0.000E+00  0.000E+00
   1   30   73     8     9    9.3806E+03 -1.9360E+03   1.1317E+04  0.000E+00  0.000E+00  0.000E+00  2.04057E+03  6.596E-02  3.000E+00  1.350E+03  0.000E+00  0.000E+00
   1   31   73     8    10    1.1317E+04 -5.9749E+02   1.1914E+04  0.000E+00  0.000E+00  0.000E+00  2.03756E+03  5.742E-02  3.000E+00  1.350E+03  0.000E+00  0.000E+00
   1   32   73     8    11    1.1914E+04 -1.9483E+03   1.3862E+04  0.000E+00  0.000E+00  0.000E+00  2.03256E+03  5.685E-02  3.000E+00  1.350E+03  0.000E+00  0.000E+00
   1   33   73     8    12    1.3862E+04 -3.2910E+03   1.7153E+04  0.000E+00  0.000E+00  0.000E+00  2.02756E+03  6.222E-02  3.000E+00  1.350E+03  0.000E+00  0.000E+00
   1   34   73     8    13    1.7153E+04 -1.1000E+03   1.8253E+04  0.000E+00  0.000E+00  0.000E+00  2.02356E+03  5.557E-02  3.000E+00  4.500E+02  0.000E+00  0.000E+00
   1   34   74     8    14    1.8253E+04 -2.1951E+03   2.0448E+04  0.000E+00  0.000E+00  0.000E+00  2.01556E+03  6.096E-02  3.000E+00  9.000E+02  0.000E+00  0.000E+00
   1   35   74     8    15    2.0448E+04  3.8519E+02   2.0063E+04  0.000E+00  0.000E+00  0.000E+00  2.01157E+03  7.066E-02  3.000E+00  6.750E+02  0.000E+00  0.000E+00
   1   36   74     8    16    2.0063E+04 -1.0952E+03   2.1158E+04  0.000E+00  0.000E+00  0.000E+00  2.00657E+03  6.625E-02  3.000E+00  4.500E+02  0.000E+00  0.000E+00
   1   36   73     8    17    2.1158E+04 -3.9931E+03   2.5152E+04  0.000E+00  0.000E+00  0.000E+00  2.00256E+03  6.320E-02  3.000E+00  9.000E+02  0.000E+00  0.000E+00
   1   37   73     8    18    2.5152E+04 -6.7788E+03   3.1930E+04  0.000E+00  0.000E+00  0.000E+00  1.99057E+03  6.943E-02  3.000E+00  1.530E+03  0.000E+00  0.000E+00
   1   38   72     8    19    3.1930E+04  3.9019E+02   3.1540E+04  0.000E+00  0.000E+00  0.000E+00  1.97758E+03  7.806E-02  3.000E+00  6.750E+02  0.000E+00  0.000E+00
   1   39   72     8    20    3.1540E+04  3.9246E+02   3.1148E+04  0.000E+00  0.000E+00  0.000E+00  1.96858E+03  8.142E-02  3.000E+00  6.750E+02  0.000E+00  0.000E+00
   1   40   72     8    21    3.1148E+04 -5.5857E+02   3.1706E+04  0.000E+00  0.000E+00  0.000E+00  1.95959E+03  8.624E-02  3.000E+00  1.350E+03  0.000E+00  0.000E+00
   1   41   72     8    22    3.1706E+04  3.9499E+02   3.1311E+04  0.000E+00  0.000E+00  0.000E+00  1.95359E+03  8.516E-02  3.000E+00  6.750E+02  0.000E+00  0.000E+00
   1   42   72     8    23    3.1311E+04 -1.8832E+02   3.1500E+04  0.000E+00  0.000E+00  0.000E+00  1.94658E+03  8.152E-02  3.000E+00  4.500E+02  0.000E+00  0.000E+00
   1   42   73     8    24    3.1500E+04  1.3319E+02   3.1366E+04  0.000E+00  0.000E+00  0.000E+00  1.94459E+03  9.197E-02  3.000E+00  2.250E+02  0.000E+00  0.000E+00
   1   31   38     9     1    5.8288E+04 -1.8334E+03   6.0121E+04  0.000E+00  0.000E+00  0.000E+00  2.07764E+03  1.419E-01  3.000E+00  1.350E+03  0.000E+00  0.000E+00
   1   31   39     9     2    6.0121E+04 -5.0275E+02   6.0624E+04  0.000E+00  0.000E+00  0.000E+00  2.07263E+03  1.276E-01  3.000E+00  1.350E+03  0.000E+00  0.000E+00
   1   31   40     9     3    6.0624E+04 -5.1129E+02   6.1135E+04  0.000E+00  0.000E+00  0.000E+00  2.06262E+03  1.213E-01  3.000E+00  1.350E+03  0.000E+00  0.000E+00
   1   31   41     9     4    6.1135E+04 -4.9636E+02   6.1632E+04  0.000E+00  0.000E+00  0.000E+00  2.05463E+03  1.323E-01  3.000E+00  1.350E+03  0.000E+00  0.000E+00
   1   31   42     9     5    6.1632E+04 -3.7205E+02   6.2004E+04  0.000E+00  0.000E+00  0.000E+00  2.04966E+03  1.555E-01  3.000E+00  1.080E+03  0.000E+00  0.000E+00
   1   30   42     9     6    6.2004E+04 -1.4849E+03   6.3489E+04  0.000E+00  0.000E+00  0.000E+00  2.04870E+03  2.001E-01  3.000E+00  4.500E+02  0.000E+00  0.000E+00
   1   30   43    10     1    8.0512E+04 -1.7892E+03   8.2302E+04  0.000E+00  0.000E+00  0.000E+00  2.04267E+03  1.747E-01  3.000E+00  1.350E+03  0.000E+00  0.000E+00
   1   30   44    10     2    8.2302E+04 -1.1796E+03   8.3481E+04  0.000E+00  0.000E+00  0.000E+00  2.03869E+03  1.893E-01  3.000E+00  9.000E+02  0.000E+00  0.000E+00
   1   29   44    10     3    8.3481E+04 -1.0365E+03   8.4518E+04  0.000E+00  0.000E+00  0.000E+00  2.03770E+03  1.966E-01  3.000E+00  4.500E+02  0.000E+00  0.000E+00
   1   29   45    10     4    8.4518E+04 -4.2463E+02   8.4942E+04  0.000E+00  0.000E+00  0.000E+00  2.03469E+03  1.855E-01  3.000E+00  1.350E+03  0.000E+00  0.000E+00
   1   29   46    10     5    8.4942E+04  4.6267E+02   8.4480E+04  0.000E+00  0.000E+00  0.000E+00  2.03069E+03  1.854E-01  3.000E+00  6.750E+02  0.000E+00  0.000E+00
   1   29   47    10     6    8.4480E+04  1.5179E+02   8.4328E+04  0.000E+00  0.000E+00  0.000E+00  2.02767E+03  1.746E-01  3.000E+00  2.250E+02  0.000E+00  0.000E+00
   1   30   47    10     7    8.4328E+04 -2.7514E+02   8.4603E+04  0.000E+00  0.000E+00  0.000E+00  2.02469E+03  1.943E-01  3.000E+00  9.000E+02  0.000E+00  0.000E+00
   1   30   48    10     8    8.4603E+04  5.4127E+02   8.4062E+04  0.000E+00  0.000E+00  0.000E+00  2.02271E+03  2.075E-01  3.000E+00  7.650E+02  0.000E+00  0.000E+00
   1   31   49    10     9    8.4062E+04  5.8705E+02   8.3475E+04  0.000E+00  0.000E+00  0.000E+00  2.01869E+03  1.866E-01  3.000E+00  8.550E+02  0.000E+00  0.000E+00
   1   32   50    10    10    8.3475E+04 -5.5122E+02   8.4026E+04  0.000E+00  0.000E+00  0.000E+00  2.01268E+03  1.776E-01  3.000E+00  1.710E+03  0.000E+00  0.000E+00
   1   32   51    11     1    1.0416E+05 -3.0793E+03   1.0724E+05  0.000E+00  0.000E+00  0.000E+00  2.00772E+03  2.190E-01  3.000E+00  1.350E+03  0.000E+00  0.000E+00
   1   33   52    11     2    1.0724E+05 -4.4183E+02   1.0768E+05  0.000E+00  0.000E+00  0.000E+00  2.00371E+03  2.112E-01  3.000E+00  1.530E+03  0.000E+00  0.000E+00
   1   33   53    11     3    1.0768E+05 -2.3962E+03   1.1007E+05  0.000E+00  0.000E+00  0.000E+00  1.99968E+03  1.751E-01  3.000E+00  4.500E+02  0.000E+00  0.000E+00
   1   34   53    11     4    1.1007E+05 -1.4231E+03   1.1150E+05  0.000E+00  0.000E+00  0.000E+00  1.99268E+03  1.824E-01  3.000E+00  1.080E+03  0.000E+00  0.000E+00
   1   34   54    11     5    1.1150E+05 -1.1362E+03   1.1263E+05  0.000E+00  0.000E+00  0.000E+00  1.98974E+03  2.376E-01  3.000E+00  9.000E+02  0.000E+00  0.000E+00
   1   35   54    11     6    1.1263E+05 -5.5791E+02   1.1319E+05  0.000E+00  0.000E+00  0.000E+00  1.98876E+03  2.602E-01  3.000E+00  4.500E+02  0.000E+00  0.000E+00
   1   35   55    11     7    1.1319E+05  5.7534E+02   1.1262E+05  0.000E+00  0.000E+00  0.000E+00  1.98675E+03  2.521E-01  3.000E+00  7.650E+02  0.000E+00  0.000E+00
   1   35   56    11     8    1.1262E+05 -3.9037E+02   1.1301E+05  0.000E+00  0.000E+00  0.000E+00  1.98374E+03  2.449E-01  3.000E+00  1.530E+03  0.000E+00  0.000E+00
   1   36   57    11     9    1.1301E+05 -3.9336E+02   1.1340E+05  0.000E+00  0.000E+00  0.000E+00  1.97977E+03  2.700E-01  3.000E+00  1.710E+03  0.000E+00  0.000E+00
   1   36   58    11    10    1.1340E+05 -2.7012E+02   1.1367E+05  0.000E+00  0.000E+00  0.000E+00  1.97880E+03  2.999E-01  3.000E+00  1.350E+03  0.000E+00  0.000E+00
   1   36   59    11    11    1.1367E+05 -2.0926E+02   1.1388E+05  0.000E+00  0.000E+00  0.000E+00  1.97677E+03  2.675E-01  3.000E+00  9.000E+02  0.000E+00  0.000E+00
   1   37   59    11    12    1.1388E+05  1.7592E+02   1.1370E+05  0.000E+00  0.000E+00  0.000E+00  1.97578E+03  2.819E-01  3.000E+00  2.250E+02  0.000E+00  0.000E+00
   1   37   60    11    13    1.1370E+05  4.3811E+02   1.1326E+05  0.000E+00  0.000E+00  0.000E+00  1.97481E+03  3.113E-01  3.000E+00  5.400E+02  0.000E+00  0.000E+00
   1   38   60    11    14    1.1326E+05 -6.6948E+01   1.1333E+05  0.000E+00  0.000E+00  0.000E+00  1.97385E+03  3.512E-01  3.000E+00  4.500E+02  0.000E+00  0.000E+00
   1   38   61    12     1    1.2408E+05 -1.9724E+02   1.2427E+05  0.000E+00  0.000E+00  0.000E+00  1.97187E+03  3.711E-01  3.000E+00  1.530E+03  0.000E+00  0.000E+00
   1   38   62    12     2    1.2427E+05 -2.2691E+02   1.2450E+05  0.000E+00  0.000E+00  0.000E+00  1.97085E+03  3.517E-01  3.000E+00  1.530E+03  0.000E+00  0.000E+00
   1   38   63    12     3    1.2450E+05 -8.4758E+01   1.2459E+05  0.000E+00  0.000E+00  0.000E+00  1.96981E+03  3.116E-01  3.000E+00  4.500E+02  0.000E+00  0.000E+00
   1   39   63    12     4    1.2459E+05 -1.0852E+03   1.2567E+05  0.000E+00  0.000E+00  0.000E+00  1.96879E+03  2.943E-01  3.000E+00  9.000E+02  0.000E+00  0.000E+00
   1   39   64    13     1    1.3071E+05 -3.1212E+02   1.3102E+05  0.000E+00  0.000E+00  0.000E+00  1.96783E+03  3.266E-01  3.000E+00  1.800E+03  0.000E+00  0.000E+00
   1   39   65    13     2    1.3102E+05 -1.0648E+03   1.3209E+05  0.000E+00  0.000E+00  0.000E+00  1.96682E+03  3.169E-01  3.000E+00  9.000E+02  0.000E+00  0.000E+00
   1   40   65    13     3    1.3209E+05 -2.3008E+03   1.3439E+05  0.000E+00  0.000E+00  0.000E+00  1.96589E+03  3.871E-01  3.000E+00  4.500E+02  0.000E+00  0.000E+00
   1   40   66    13     4    1.3439E+05 -1.8926E+02   1.3458E+05  0.000E+00  0.000E+00  0.000E+00  1.96486E+03  3.598E-01  3.000E+00  1.350E+03  0.000E+00  0.000E+00
   1   40   67    13     5    1.3458E+05  5.4475E+02   1.3403E+05  0.000E+00  0.000E+00  0.000E+00  1.96281E+03  3.070E-01  3.000E+00  6.750E+02  0.000E+00  0.000E+00
   1   40   68    13     6    1.3403E+05 -2.2749E+02   1.3426E+05  0.000E+00  0.000E+00  0.000E+00  1.96083E+03  3.315E-01  3.000E+00  1.350E+03  0.000E+00  0.000E+00
   1   41   69    13     7    1.3426E+05  5.4736E+02   1.3371E+05  0.000E+00  0.000E+00  0.000E+00  1.95981E+03  3.109E-01  3.000E+00  6.750E+02  0.000E+00  0.000E+00
   1   41   70    13     8    1.3371E+05 -4.2633E+02   1.3414E+05  0.000E+00  0.000E+00  0.000E+00  1.95675E+03  2.507E-01  3.000E+00  1.710E+03  0.000E+00  0.000E+00
   1   42   71    13     9    1.3414E+05 -3.8339E+02   1.3452E+05  0.000E+00  0.000E+00  0.000E+00  1.95075E+03  2.494E-01  3.000E+00  1.530E+03  0.000E+00  0.000E+00
   1   42   72    13    10    1.3452E+05  5.1337E+02   1.3401E+05  0.000E+00  0.000E+00  0.000E+00  1.94776E+03  2.606E-01  3.000E+00  6.750E+02  0.000E+00  0.000E+00
   1   42   73    13    11    1.3401E+05  1.6641E+02   1.3384E+05  0.000E+00  0.000E+00  0.000E+00  1.94474E+03  2.396E-01  3.000E+00  2.250E+02  0.000E+00  0.000E+00
   1   42   73    14     1    1.6521E+05 -8.6452E+01   1.6529E+05  0.000E+00  0.000E+00  0.000E+00  1.94381E+03  3.079E-01  3.000E+00  4.500E+02  0.000E+00  0.000E+00
   1   43   73    14     2    1.6529E+05 -5.1616E+02   1.6581E+05  0.000E+00  0.000E+00  0.000E+00  1.94285E+03  3.530E-01  3.000E+00  4.500E+02  0.000E+00  0.000E+00
   1   43   74    14     3    1.6581E+05  6.5644E+02   1.6515E+05  0.000E+00  0.000E+00  0.000E+00  1.94186E+03  3.581E-01  3.000E+00  7.650E+02  0.000E+00  0.000E+00
   1   43   75    14     4    1.6515E+05 -1.4515E+02   1.6530E+05  0.000E+00  0.000E+00  0.000E+00  1.93984E+03  3.387E-01  3.000E+00  9.000E+02  0.000E+00  0.000E+00
   1   44   75    14     5    1.6530E+05 -8.0930E+01   1.6538E+05  0.000E+00  0.000E+00  0.000E+00  1.93882E+03  3.202E-01  3.000E+00  4.500E+02  0.000E+00  0.000E+00
   1   44   76    14     6    1.6538E+05  5.7887E+02   1.6480E+05  0.000E+00  0.000E+00  0.000E+00  1.93686E+03  3.576E-01  3.000E+00  6.750E+02  0.000E+00  0.000E+00
   1   44   77    15     1    1.7237E+05  6.3353E+02   1.7174E+05  0.000E+00  0.000E+00  0.000E+00  1.93594E+03  4.386E-01  3.000E+00  6.750E+02  0.000E+00  0.000E+00
   1   44   78    15     2    1.7174E+05  5.7126E+02   1.7117E+05  0.000E+00  0.000E+00  0.000E+00  1.93485E+03  3.463E-01  3.000E+00  6.750E+02  0.000E+00  0.000E+00
   1   44   79    15     3    1.7117E+05 -1.6691E+02   1.7133E+05  0.000E+00  0.000E+00  0.000E+00  1.93181E+03  3.145E-01  3.000E+00  9.000E+02  0.000E+00  0.000E+00
   1   45   79    15     4    1.7133E+05 -5.1496E+02   1.7185E+05  0.000E+00  0.000E+00  0.000E+00  1.93086E+03  3.556E-01  3.000E+00  4.500E+02  0.000E+00  0.000E+00



1
  VOLUMETRIC BUDGET FOR UNSATURATED ZONE BENEATH STREAMS AT END OF TIME STEP  5844 STRESS PERIOD   2
  ------------------------------------------------------------------------------------------------

    CUMULATIVE VOLUMES             L**3    RATES FOR THIS TIME STEP         L**3/T
    ------------------                     ------------------------


          STREAM LOSS =            0.0000            STREAM LOSS =            0.0000
    CHANGE IN STORAGE =            0.0000      CHANGE IN STORAGE =            0.0000
       RECHARGE TO GW =            0.0000         RECHARGE TO GW =            0.0000

             TOTAL IN =            0.0000               TOTAL IN =            0.0000

            TOTAL OUT =            0.0000              TOTAL OUT =            0.0000

             IN - OUT =            0.0000               IN - OUT =            0.0000

  PERCENT DISCREPANCY =            0.00      PERCENT DISCREPANCY =             0.00





UNSATURATED ZONE PACKAGE VOLUMETRIC BUDGET FOR  TIME STEP  5844 STRESS PERIOD    2
  ------------------------------------------------------------------------------



     CUMULATIVE VOLUMES      L**3       RATES FOR THIS TIME STEP      L**3/T
     ------------------                 ------------------------

           IN:                                      IN:
           ---                                      ---
        INFILTRATION =    81063251.7444          INFILTRATION =       13868.8198

          OUT:                                     OUT:
          ----                                     ----
              UZF ET =       0.0000E+00                UZF ET =       0.0000E+00
        UZF RECHARGE =    81063251.7444          UZF RECHARGE =       13868.8198

            IN - OUT =       0.0000E+00              IN - OUT =       0.0000E+00

          STORAGE:                                 STORAGE:
          --------                                 --------
      STORAGE CHANGE =       0.0000E+00        STORAGE CHANGE =       0.0000E+00

 PERCENT DISCREPANCY IS DIFFERENCE BETWEEN IN-OUT MINUS CHANGE IN STORAGE
 DIVIDED BY THE AVERAGE OF IN AND OUT TIMES 100

 PERCENT DISCREPANCY =           0.00     PERCENT DISCREPANCY =           0.00






1
              HEAD IN LAYER   1 AT END OF TIME STEP *** IN STRESS PERIOD    2
  ---------------------------------------------------------------------------

           1       2       3       4       5       6       7       8       9      10      11      12      13      14      15
          16      17      18      19      20      21      22      23      24      25      26      27      28      29      30
          31      32      33      34      35      36      37      38      39      40      41      42      43      44      45
          46      47      48      49      50      51      52      53      54      55      56      57      58      59      60
          61      62      63      64      65      66      67      68      69      70      71      72      73      74      75
          76      77      78      79      80      81
 ...........................................................................................................................
   1  -999.00 -999.00 -999.00 -999.00 -999.00 -999.00 -999.00 -999.00 -999.00 -999.00 -999.00 -999.00 -999.00 -999.00 -999.00
      -999.00 -999.00 -999.00 -999.00 -999.00 -999.00 -999.00 -999.00 -999.00 -999.00 -999.00 -999.00 -999.00 -999.00 -999.00
      -999.00 -999.00 -999.00 -999.00 -999.00 -999.00 -999.00 -999.00 -999.00 -999.00 -999.00 -999.00 -999.00 -999.00 -999.00
      -999.00 -999.00 -999.00 -999.00 -999.00 -999.00 -999.00 -999.00 -999.00 -999.00 -999.00 -999.00 -999.00 -999.00 -999.00
      -999.00 -999.00 -999.00 2166.00 2148.00 -999.00 -999.00 -999.00 -999.00 -999.00 -999.00 -999.00 -999.00 -999.00 -999.00
      -999.00 -999.00 -999.00 -999.00 -999.00 -999.00
   2  -999.00 -999.00 -999.00 -999.00 -999.00 -999.00 -999.00 -999.00 -999.00 -999.00 -999.00 -999.00 -999.00 -999.00 -999.00
      -999.00 -999.00 -999.00 -999.00 -999.00 -999.00 -999.00 -999.00 -999.00 -999.00 -999.00 -999.00 -999.00 -999.00 -999.00
      -999.00 -999.00 -999.00 -999.00 -999.00 -999.00 -999.00 -999.00 -999.00 -999.00 -999.00 -999.00 -999.00 -999.00 -999.00
      -999.00 -999.00 -999.00 -999.00 -999.00 -999.00 -999.00 -999.00 -999.00 -999.00 -999.00 -999.00 -999.00 -999.00 -999.00
      -999.00 -999.00 2170.00 2158.00 2136.00 -999.00 -999.00 -999.00 -999.00 -999.00 -999.00 -999.00 -999.00 -999.00 -999.00
      -999.00 -999.00 -999.00 -999.00 -999.00 -999.00
   3  -999.00 -999.00 -999.00 -999.00 -999.00 -999.00 -999.00 -999.00 -999.00 -999.00 -999.00 -999.00 -999.00 -999.00 -999.00
      -999.00 -999.00 -999.00 -999.00 -999.00 -999.00 -999.00 -999.00 -999.00 -999.00 -999.00 -999.00 -999.00 -999.00 -999.00
      -999.00 -999.00 -999.00 -999.00 -999.00 -999.00 -999.00 -999.00 -999.00 -999.00 -999.00 -999.00 -999.00 -999.00 -999.00
      -999.00 -999.00 -999.00 -999.00 -999.00 -999.00 -999.00 -999.00 -999.00 -999.00 -999.00 -999.00 -999.00 -999.00 -999.00
      -999.00 -999.00 2161.00 2144.00 2124.00 -999.00 -999.00 -999.00 -999.00 -999.00 -999.00 -999.00 -999.00 -999.00 -999.00
      -999.00 -999.00 -999.00 -999.00 -999.00 -999.00
   4  -999.00 -999.00 -999.00 -999.00 -999.00 -999.00 -999.00 -999.00 -999.00 -999.00 -999.00 -999.00 -999.00 -999.00 -999.00
      -999.00 -999.00 -999.00 -999.00 -999.00 -999.00 -999.00 -999.00 -999.00 -999.00 -999.00 -999.00 -999.00 -999.00 -999.00
      -999.00 -999.00 -999.00 -999.00 -999.00 -999.00 -999.00 -999.00 -999.00 -999.00 -999.00 -999.00 -999.00 -999.00 -999.00
      -999.00 -999.00 -999.00 -999.00 -999.00 -999.00 -999.00 -999.00 -999.00 -999.00 -999.00 -999.00 -999.00 -999.00 -999.00
      -999.00 2158.00 2152.00 2128.00 2121.00 -999.00 -999.00 -999.00 -999.00 -999.00 -999.00 -999.00 -999.00 -999.00 -999.00
      -999.00 -999.00 -999.00 -999.00 -999.00 -999.00
   5  -999.00 -999.00 -999.00 -999.00 -999.00 -999.00 -999.00 -999.00 -999.00 -999.00 -999.00 -999.00 -999.00 -999.00 -999.00
      -999.00 -999.00 -999.00 -999.00 -999.00 -999.00 -999.00 -999.00 -999.00 -999.00 -999.00 -999.00 -999.00 -999.00 -999.00
      -999.00 -999.00 -999.00 -999.00 -999.00 -999.00 -999.00 -999.00 -999.00 -999.00 -999.00 -999.00 -999.00 -999.00 -999.00
      -999.00 -999.00 -999.00 -999.00 -999.00 -999.00 -999.00 -999.00 -999.00 -999.00 -999.00 -999.00 -999.00 -999.00 -999.00
      -999.00 2153.00 2141.00 2122.00 2119.00 2119.00 -999.00 -999.00 -999.00 -999.00 -999.00 -999.00 -999.00 -999.00 -999.00
      -999.00 -999.00 -999.00 -999.00 -999.00 -999.00
   6  -999.00 -999.00 -999.00 -999.00 -999.00 -999.00 -999.00 -999.00 -999.00 -999.00 -999.00 -999.00 -999.00 -999.00 -999.00
      -999.00 -999.00 -999.00 -999.00 -999.00 -999.00 -999.00 -999.00 -999.00 -999.00 -999.00 -999.00 -999.00 -999.00 -999.00
      -999.00 -999.00 -999.00 -999.00 -999.00 -999.00 -999.00 -999.00 -999.00 -999.00 -999.00 -999.00 -999.00 -999.00 -999.00
      -999.00 -999.00 -999.00 -999.00 -999.00 -999.00 -999.00 -999.00 -999.00 -999.00 -999.00 -999.00 -999.00 -999.00 -999.00
      -999.00 2149.00 2134.00 2121.00 2119.00 2118.00 2116.00 -999.00 -999.00 -999.00 -999.00 -999.00 -999.00 -999.00 -999.00
      -999.00 -999.00 -999.00 -999.00 -999.00 -999.00
   7  -999.00 -999.00 -999.00 -999.00 -999.00 -999.00 -999.00 -999.00 -999.00 -999.00 -999.00 -999.00 -999.00 -999.00 -999.00
      -999.00 -999.00 -999.00 -999.00 -999.00 -999.00 -999.00 -999.00 -999.00 -999.00 -999.00 -999.00 -999.00 -999.00 -999.00
      -999.00 -999.00 -999.00 -999.00 -999.00 -999.00 -999.00 -999.00 -999.00 -999.00 -999.00 -999.00 -999.00 -999.00 -999.00
      -999.00 -999.00 -999.00 -999.00 -999.00 -999.00 -999.00 -999.00 -999.00 -999.00 -999.00 -999.00 -999.00 -999.00 -999.00
      2156.00 2151.00 2136.00 2125.00 2119.00 2115.00 2114.00 2116.00 -999.00 -999.00 -999.00 -999.00 -999.00 -999.00 -999.00
      -999.00 -999.00 -999.00 -999.00 -999.00 -999.00
   8  -999.00 -999.00 -999.00 -999.00 -999.00 -999.00 -999.00 -999.00 -999.00 -999.00 -999.00 -999.00 -999.00 -999.00 -999.00
      -999.00 -999.00 -999.00 -999.00 -999.00 -999.00 -999.00 -999.00 -999.00 -999.00 -999.00 -999.00 -999.00 -999.00 -999.00
      -999.00 -999.00 -999.00 -999.00 -999.00 -999.00 -999.00 -999.00 -999.00 -999.00 -999.00 -999.00 -999.00 -999.00 -999.00
      -999.00 -999.00 -999.00 -999.00 -999.00 -999.00 -999.00 -999.00 -999.00 -999.00 -999.00 -999.00 -999.00 -999.00 -999.00
      2160.00 2153.00 2142.00 2130.00 2117.00 2111.00 2112.00 2116.00 2120.00 2123.00 2125.00 -999.00 -999.00 -999.00 -999.00
      -999.00 -999.00 -999.00 -999.00 -999.00 -999.00
   9  -999.00 -999.00 -999.00 -999.00 -999.00 -999.00 -999.00 -999.00 -999.00 -999.00 -999.00 -999.00 -999.00 -999.00 -999.00
      -999.00 -999.00 -999.00 -999.00 -999.00 -999.00 -999.00 -999.00 -999.00 -999.00 -999.00 -999.00 -999.00 -999.00 -999.00
      -999.00 -999.00 -999.00 -999.00 -999.00 -999.00 -999.00 -999.00 -999.00 -999.00 -999.00 -999.00 -999.00 -999.00 -999.00
      -999.00 -999.00 -999.00 2185.00 2184.00 -999.00 -999.00 -999.00 -999.00 -999.00 -999.00 -999.00 -999.00 2152.00 2156.00
      2155.00 2146.00 2138.00 2128.00 2114.00 2109.00 2110.00 2114.00 2120.00 2124.00 2126.00 2122.00 2120.00 2121.00 2123.00
      -999.00 -999.00 -999.00 -999.00 -999.00 -999.00
  10  -999.00 -999.00 -999.00 -999.00 -999.00 -999.00 -999.00 -999.00 -999.00 -999.00 -999.00 -999.00 -999.00 -999.00 -999.00
      -999.00 -999.00 -999.00 -999.00 -999.00 -999.00 -999.00 -999.00 -999.00 -999.00 -999.00 -999.00 -999.00 -999.00 -999.00
      -999.00 -999.00 -999.00 -999.00 -999.00 -999.00 -999.00 -999.00 -999.00 -999.00 -999.00 -999.00 -999.00 -999.00 -999.00
      -999.00 -999.00 2188.00 2185.00 2184.00 2186.00 2181.00 2172.00 -999.00 -999.00 -999.00 2153.00 2151.00 2149.00 2149.00
      2147.00 2142.00 2133.00 2121.00 2112.00 2107.00 2108.00 2110.00 2120.00 2125.00 2126.00 2123.00 2118.00 2119.00 2121.00
      2123.00 -999.00 -999.00 -999.00 -999.00 -999.00
  11  -999.00 -999.00 -999.00 -999.00 -999.00 -999.00 -999.00 -999.00 -999.00 -999.00 -999.00 -999.00 -999.00 -999.00 -999.00
      -999.00 -999.00 -999.00 -999.00 -999.00 -999.00 -999.00 -999.00 -999.00 -999.00 -999.00 -999.00 -999.00 -999.00 -999.00
      -999.00 -999.00 -999.00 -999.00 -999.00 -999.00 -999.00 -999.00 -999.00 -999.00 -999.00 -999.00 -999.00 -999.00 -999.00
      -999.00 2194.00 2186.00 2178.00 2179.00 2176.00 2169.00 2166.00 2165.00 2163.00 2160.00 2156.00 2151.00 2147.00 2144.00
      2142.00 2138.00 2130.00 2118.00 2110.00 2106.00 2106.00 2108.00 2116.00 2123.00 2125.00 2123.00 2117.00 2112.00 2114.00
      2118.00 -999.00 -999.00 -999.00 -999.00 -999.00
  12  -999.00 -999.00 -999.00 -999.00 -999.00 -999.00 -999.00 -999.00 -999.00 -999.00 -999.00 -999.00 -999.00 -999.00 -999.00
      -999.00 -999.00 -999.00 -999.00 -999.00 -999.00 -999.00 -999.00 -999.00 -999.00 -999.00 -999.00 -999.00 -999.00 -999.00
      -999.00 -999.00 -999.00 -999.00 -999.00 -999.00 -999.00 -999.00 -999.00 -999.00 -999.00 -999.00 -999.00 -999.00 -999.00
      -999.00 2193.00 2182.00 2174.00 2167.00 2158.00 2156.00 2157.00 2161.00 2162.00 2160.00 2154.00 2148.00 2144.00 2139.00
      2136.00 2136.00 2131.00 2118.00 2110.00 2106.00 2105.00 2106.00 2112.00 2117.00 2120.00 2119.00 2115.00 2110.00 2108.00
      2112.00 2117.00 -999.00 -999.00 -999.00 -999.00
  13  -999.00 -999.00 -999.00 -999.00 -999.00 -999.00 -999.00 -999.00 -999.00 -999.00 -999.00 -999.00 -999.00 -999.00 -999.00
      -999.00 -999.00 -999.00 -999.00 -999.00 -999.00 -999.00 -999.00 -999.00 -999.00 -999.00 -999.00 -999.00 -999.00 -999.00
      -999.00 -999.00 -999.00 -999.00 -999.00 -999.00 -999.00 -999.00 -999.00 -999.00 -999.00 -999.00 -999.00 -999.00 2207.00
      2197.00 2187.00 2179.00 2171.00 2159.00 2150.00 2144.00 2145.00 2152.00 2157.00 2157.00 2151.00 2145.00 2140.00 2135.00
      2132.00 2131.00 2127.00 2119.00 2110.00 2107.00 2103.00 2102.00 2107.00 2110.00 2112.00 2114.00 2112.00 2107.00 2102.00
      2109.00 2117.00 2123.00 -999.00 -999.00 -999.00
  14  -999.00 -999.00 -999.00 -999.00 -999.00 -999.00 -999.00 -999.00 -999.00 -999.00 -999.00 -999.00 -999.00 -999.00 -999.00
      -999.00 -999.00 -999.00 -999.00 -999.00 -999.00 -999.00 -999.00 -999.00 -999.00 -999.00 -999.00 -999.00 -999.00 -999.00
      -999.00 -999.00 -999.00 -999.00 -999.00 -999.00 -999.00 -999.00 -999.00 -999.00 -999.00 2219.00 2213.00 2209.00 2200.00
      2185.00 2179.00 2172.00 2161.00 2156.00 2151.00 2147.00 2135.00 2140.00 2147.00 2149.00 2147.00 2142.00 2137.00 2132.00
      2129.00 2126.00 2122.00 2117.00 2111.00 2105.00 2100.00 2098.00 2101.00 2104.00 2107.00 2108.00 2106.00 2100.00 2099.00
      2108.00 2117.00 2124.00 2128.00 -999.00 -999.00
  15  -999.00 -999.00 -999.00 -999.00 -999.00 -999.00 -999.00 -999.00 -999.00 -999.00 -999.00 -999.00 -999.00 -999.00 -999.00
      -999.00 -999.00 -999.00 -999.00 -999.00 -999.00 -999.00 -999.00 -999.00 -999.00 -999.00 -999.00 -999.00 -999.00 -999.00
      -999.00 -999.00 -999.00 -999.00 -999.00 -999.00 -999.00 -999.00 -999.00 -999.00 2225.00 2218.00 2209.00 2206.00 2191.00
      2180.00 2174.00 2167.00 2158.00 2155.00 2151.00 2148.00 2133.00 2128.00 2132.00 2136.00 2139.00 2138.00 2134.00 2128.00
      2125.00 2121.00 2118.00 2115.00 2111.00 2105.00 2099.00 2094.00 2095.00 2097.00 2101.00 2102.00 2099.00 2095.00 2095.00
      2103.00 2113.00 2121.00 2127.00 2131.00 -999.00
  16  -999.00 -999.00 -999.00 -999.00 -999.00 -999.00 -999.00 -999.00 -999.00 -999.00 -999.00 -999.00 -999.00 -999.00 -999.00
      -999.00 -999.00 -999.00 -999.00 -999.00 -999.00 -999.00 -999.00 -999.00 -999.00 -999.00 -999.00 -999.00 -999.00 -999.00
      -999.00 -999.00 -999.00 -999.00 -999.00 -999.00 -999.00 -999.00 -999.00 2230.00 2222.00 2224.00 2226.00 2215.00 2198.00
      2188.00 2179.00 2168.00 2158.00 2154.00 2149.00 2142.00 2131.00 2122.00 2117.00 2121.00 2131.00 2131.00 2127.00 2123.00
      2120.00 2116.00 2113.00 2111.00 2109.00 2105.00 2099.00 2091.00 2091.00 2094.00 2097.00 2097.00 2092.00 2088.00 2089.00
      2097.00 2109.00 2121.00 2126.00 2128.00 -999.00
  17  -999.00 -999.00 -999.00 -999.00 -999.00 -999.00 -999.00 -999.00 -999.00 -999.00 -999.00 -999.00 -999.00 -999.00 -999.00
      -999.00 -999.00 -999.00 -999.00 -999.00 -999.00 -999.00 -999.00 -999.00 -999.00 -999.00 -999.00 -999.00 -999.00 -999.00
      -999.00 -999.00 -999.00 -999.00 -999.00 -999.00 -999.00 -999.00 -999.00 2235.00 2240.00 2241.00 2235.00 2220.00 2202.00
      2191.00 2181.00 2175.00 2164.00 2155.00 2149.00 2142.00 2135.00 2126.00 2107.00 2107.00 2121.00 2122.00 2119.00 2116.00
      2112.00 2110.00 2109.00 2107.00 2106.00 2104.00 2100.00 2090.00 2087.00 2090.00 2092.00 2091.00 2085.00 2082.00 2081.00
      2090.00 2106.00 2120.00 2123.00 2123.00 -999.00
  18  -999.00 -999.00 -999.00 -999.00 -999.00 -999.00 -999.00 -999.00 -999.00 -999.00 -999.00 -999.00 -999.00 -999.00 -999.00
      -999.00 -999.00 -999.00 -999.00 -999.00 -999.00 -999.00 -999.00 -999.00 -999.00 -999.00 -999.00 -999.00 -999.00 -999.00
      -999.00 -999.00 -999.00 -999.00 -999.00 -999.00 -999.00 -999.00 -999.00 2248.00 2242.00 2233.00 2221.00 2207.00 2193.00
      2181.00 2171.00 2165.00 2157.00 2150.00 2146.00 2140.00 2136.00 2123.00 2100.00 2094.00 2109.00 2113.00 2111.00 2108.00
      2106.00 2105.00 2105.00 2105.00 2103.00 2102.00 2099.00 2090.00 2083.00 2088.00 2089.00 2088.00 2085.00 2076.00 2075.00
      2082.00 2096.00 2110.00 2115.00 2119.00 -999.00
  19  -999.00 -999.00 -999.00 -999.00 -999.00 -999.00 -999.00 -999.00 -999.00 -999.00 -999.00 -999.00 -999.00 -999.00 -999.00
      -999.00 -999.00 -999.00 -999.00 -999.00 -999.00 -999.00 -999.00 -999.00 -999.00 -999.00 -999.00 -999.00 -999.00 -999.00
      -999.00 -999.00 -999.00 -999.00 2262.00 2252.00 2253.00 2251.00 2243.00 2234.00 2224.00 2213.00 2203.00 2191.00 2180.00
      2170.00 2162.00 2153.00 2143.00 2136.00 2130.00 2126.00 2124.00 2109.00 2087.00 2086.00 2098.00 2102.00 2101.00 2101.00
      2100.00 2099.00 2099.00 2102.00 2101.00 2100.00 2096.00 2088.00 2080.00 2085.00 2086.00 2084.00 2081.00 2072.00 2070.00
      2076.00 2085.00 2097.00 2107.00 2113.00 2115.00
  20  -999.00 -999.00 -999.00 -999.00 -999.00 -999.00 -999.00 -999.00 -999.00 -999.00 -999.00 -999.00 -999.00 -999.00 -999.00
      -999.00 -999.00 -999.00 -999.00 -999.00 -999.00 -999.00 -999.00 -999.00 -999.00 -999.00 -999.00 -999.00 -999.00 -999.00
      -999.00 -999.00 2270.00 2256.00 2240.00 2225.00 2228.00 2228.00 2222.00 2213.00 2204.00 2193.00 2182.00 2172.00 2162.00
      2155.00 2150.00 2146.00 2137.00 2124.00 2112.00 2102.00 2100.00 2090.00 2073.00 2075.00 2085.00 2093.00 2092.00 2093.00
      2094.00 2094.00 2096.00 2099.00 2100.00 2098.00 2091.00 2085.00 2075.00 2077.00 2078.00 2073.00 2068.00 2065.00 2063.00
      2066.00 2074.00 2085.00 2100.00 2108.00 2112.00
  21  -999.00 -999.00 -999.00 -999.00 -999.00 -999.00 -999.00 -999.00 -999.00 -999.00 -999.00 -999.00 -999.00 -999.00 -999.00
      -999.00 -999.00 -999.00 -999.00 -999.00 -999.00 -999.00 -999.00 -999.00 -999.00 -999.00 -999.00 -999.00 -999.00 2284.00
      2273.00 2256.00 2243.00 2231.00 2213.00 2196.00 2201.00 2202.00 2199.00 2192.00 2184.00 2174.00 2164.00 2153.00 2145.00
      2139.00 2134.00 2129.00 2124.00 2115.00 2103.00 2086.00 2075.00 2066.00 2060.00 2064.00 2074.00 2082.00 2083.00 2084.00
      2086.00 2090.00 2094.00 2097.00 2097.00 2091.00 2085.00 2078.00 2069.00 2063.00 2066.00 2062.00 2060.00 2060.00 2058.00
      2059.00 2064.00 2075.00 2093.00 2102.00 2106.00
  22  -999.00 -999.00 -999.00 -999.00 -999.00 -999.00 -999.00 -999.00 -999.00 -999.00 -999.00 -999.00 -999.00 -999.00 -999.00
      -999.00 -999.00 -999.00 -999.00 -999.00 -999.00 -999.00 -999.00 -999.00 -999.00 -999.00 2280.00 2278.00 2273.00 2264.00
      2245.00 2229.00 2218.00 2207.00 2191.00 2173.00 2179.00 2181.00 2178.00 2172.00 2164.00 2155.00 2145.00 2134.00 2124.00
      2119.00 2116.00 2113.00 2108.00 2104.00 2096.00 2081.00 2065.00 2055.00 2050.00 2055.00 2066.00 2073.00 2074.00 2077.00
      2083.00 2087.00 2091.00 2093.00 2089.00 2084.00 2079.00 2074.00 2065.00 2058.00 2056.00 2056.00 2057.00 2057.00 2057.00
      2057.00 2057.00 2068.00 2084.00 2095.00 2100.00
  23  -999.00 -999.00 -999.00 -999.00 -999.00 -999.00 -999.00 -999.00 -999.00 -999.00 -999.00 -999.00 -999.00 -999.00 -999.00
      -999.00 -999.00 -999.00 -999.00 -999.00 -999.00 -999.00 -999.00 -999.00 2319.00 2302.00 2278.00 2261.00 2248.00 2234.00
      2216.00 2204.00 2196.00 2187.00 2175.00 2164.00 2164.00 2164.00 2160.00 2153.00 2145.00 2132.00 2119.00 2110.00 2106.00
      2103.00 2101.00 2097.00 2092.00 2089.00 2088.00 2080.00 2062.00 2048.00 2042.00 2048.00 2056.00 2060.00 2064.00 2072.00
      2080.00 2086.00 2089.00 2089.00 2084.00 2078.00 2075.00 2070.00 2063.00 2055.00 2052.00 2054.00 2056.00 2058.00 2059.00
      2058.00 2057.00 2063.00 2075.00 2090.00 2096.00
  24  -999.00 -999.00 -999.00 -999.00 -999.00 -999.00 -999.00 -999.00 -999.00 -999.00 -999.00 -999.00 -999.00 -999.00 -999.00
      -999.00 -999.00 -999.00 -999.00 -999.00 -999.00 -999.00 2330.00 2316.00 2300.00 2283.00 2257.00 2236.00 2223.00 2206.00
      2193.00 2185.00 2178.00 2171.00 2163.00 2156.00 2151.00 2149.00 2143.00 2135.00 2124.00 2111.00 2101.00 2094.00 2090.00
      2087.00 2083.00 2079.00 2076.00 2077.00 2078.00 2072.00 2059.00 2044.00 2036.00 2038.00 2046.00 2049.00 2056.00 2071.00
      2077.00 2082.00 2087.00 2088.00 2080.00 2073.00 2071.00 2067.00 2062.00 2053.00 2049.00 2052.00 2058.00 2064.00 2069.00
      2069.00 2064.00 2065.00 2077.00 2096.00 2107.00
  25  -999.00 -999.00 -999.00 -999.00 -999.00 -999.00 -999.00 -999.00 -999.00 -999.00 -999.00 -999.00 -999.00 -999.00 -999.00
      -999.00 -999.00 -999.00 -999.00 -999.00 2371.00 2337.00 2311.00 2295.00 2281.00 2265.00 2240.00 2215.00 2196.00 2184.00
      2177.00 2170.00 2163.00 2157.00 2151.00 2147.00 2142.00 2133.00 2128.00 2119.00 2107.00 2096.00 2087.00 2080.00 2074.00
      2070.00 2066.00 2064.00 2064.00 2067.00 2068.00 2065.00 2054.00 2040.00 2031.00 2028.00 2033.00 2038.00 2049.00 2065.00
      2073.00 2078.00 2083.00 2086.00 2077.00 2071.00 2068.00 2066.00 2060.00 2051.00 2046.00 2051.00 2057.00 2065.00 2071.00
      2075.00 2073.00 2071.00 2080.00 2098.00 -999.00
  26  -999.00 -999.00 -999.00 -999.00 -999.00 -999.00 -999.00 -999.00 -999.00 -999.00 -999.00 -999.00 -999.00 -999.00 -999.00
      -999.00 -999.00 -999.00 2380.00 2373.00 2353.00 2323.00 2295.00 2282.00 2270.00 2250.00 2226.00 2200.00 2177.00 2168.00
      2163.00 2157.00 2151.00 2145.00 2139.00 2136.00 2133.00 2122.00 2115.00 2107.00 2096.00 2084.00 2072.00 2066.00 2062.00
      2056.00 2053.00 2051.00 2054.00 2057.00 2059.00 2059.00 2052.00 2043.00 2033.00 2023.00 2022.00 2030.00 2042.00 2058.00
      2067.00 2071.00 2077.00 2079.00 2072.00 2066.00 2065.00 2064.00 2060.00 2048.00 2046.00 2047.00 2053.00 2063.00 2071.00
      2078.00 2082.00 2076.00 2079.00 -999.00 -999.00
  27  -999.00 -999.00 -999.00 -999.00 -999.00 -999.00 -999.00 -999.00 -999.00 -999.00 -999.00 -999.00 -999.00 -999.00 -999.00
      -999.00 -999.00 2370.00 2364.00 2354.00 2341.00 2313.00 2282.00 2272.00 2259.00 2239.00 2216.00 2191.00 2166.00 2156.00
      2151.00 2146.00 2140.00 2135.00 2130.00 2125.00 2122.00 2111.00 2106.00 2100.00 2088.00 2072.00 2061.00 2055.00 2050.00
      2045.00 2041.00 2040.00 2044.00 2048.00 2050.00 2052.00 2049.00 2042.00 2032.00 2018.00 2018.00 2025.00 2037.00 2052.00
      2062.00 2067.00 2071.00 2072.00 2065.00 2060.00 2061.00 2062.00 2060.00 2051.00 2046.00 2045.00 2048.00 2060.00 2073.00
      2081.00 -999.00 -999.00 -999.00 -999.00 -999.00
  28  -999.00 -999.00 -999.00 -999.00 -999.00 -999.00 -999.00 -999.00 -999.00 -999.00 -999.00 -999.00 -999.00 -999.00 -999.00
      -999.00 2370.00 2363.00 2351.00 2342.00 2328.00 2303.00 2273.00 2260.00 2246.00 2227.00 2207.00 2187.00 2165.00 2148.00
      2141.00 2134.00 2130.00 2125.00 2120.00 2117.00 2114.00 2107.00 2100.00 2092.00 2080.00 2065.00 2053.00 2047.00 2042.00
      2037.00 2033.00 2033.00 2036.00 2039.00 2043.00 2045.00 2043.00 2039.00 2030.00 2018.00 2013.00 2020.00 2032.00 2046.00
      2055.00 2061.00 2063.00 2062.00 2059.00 2055.00 2056.00 2058.00 2058.00 2057.00 2049.00 2049.00 2044.00 2056.00 2068.00
      2082.00 -999.00 -999.00 -999.00 -999.00 -999.00
  29  -999.00 -999.00 -999.00 -999.00 -999.00 -999.00 -999.00 -999.00 -999.00 -999.00 -999.00 2467.00 2440.00 2419.00 2398.00
      2377.00 2365.00 2353.00 2342.00 2331.00 2318.00 2292.00 2266.00 2248.00 2233.00 2216.00 2201.00 2183.00 2164.00 2148.00
      2137.00 2129.00 2123.00 2117.00 2113.00 2110.00 2106.00 2101.00 2096.00 2082.00 2070.00 2058.00 2047.00 2040.00 2035.00
      2030.00 2027.00 2026.00 2028.00 2031.00 2035.00 2038.00 2037.00 2033.00 2026.00 2014.00 2008.00 2016.00 2029.00 2039.00
      2046.00 2052.00 2053.00 2053.00 2052.00 2049.00 2050.00 2052.00 2057.00 2057.00 2052.00 2050.00 2044.00 2050.00 2061.00
      2071.00 -999.00 -999.00 -999.00 -999.00 -999.00
  30  -999.00 -999.00 -999.00 -999.00 -999.00 -999.00 -999.00 -999.00 -999.00 -999.00 2510.00 2464.00 2434.00 2412.00 2391.00
      2374.00 2358.00 2344.00 2335.00 2325.00 2311.00 2285.00 2268.00 2248.00 2227.00 2209.00 2190.00 2175.00 2164.00 2152.00
      2137.00 2128.00 2119.00 2111.00 2105.00 2101.00 2096.00 2090.00 2083.00 2071.00 2060.00 2052.00 2044.00 2040.00 2038.00
      2033.00 2025.00 2022.00 2022.00 2024.00 2028.00 2031.00 2031.00 2027.00 2020.00 2008.00 2003.00 2015.00 2027.00 2031.00
      2035.00 2041.00 2043.00 2046.00 2046.00 2043.00 2044.00 2047.00 2054.00 2056.00 2055.00 2052.00 2042.00 2045.00 2052.00
      2058.00 -999.00 -999.00 -999.00 -999.00 -999.00
  31  -999.00 -999.00 -999.00 -999.00 -999.00 -999.00 -999.00 -999.00 -999.00 2544.00 2509.00 2466.00 2438.00 2412.00 2389.00
      2370.00 2355.00 2342.00 2333.00 2320.00 2306.00 2287.00 2270.00 2250.00 2230.00 2214.00 2194.00 2173.00 2162.00 2149.00
      2136.00 2126.00 2119.00 2110.00 2100.00 2094.00 2086.00 2079.00 2073.00 2063.00 2055.00 2050.00 2054.00 2051.00 2050.00
      2044.00 2033.00 2022.00 2018.00 2018.00 2020.00 2023.00 2026.00 2023.00 2014.00 2001.00 1999.00 2011.00 2021.00 2022.00
      2026.00 2031.00 2036.00 2040.00 2040.00 2036.00 2037.00 2043.00 2052.00 2056.00 2056.00 2055.00 2038.00 2040.00 2046.00
      2049.00 -999.00 -999.00 -999.00 -999.00 -999.00
  32  -999.00 -999.00 -999.00 -999.00 -999.00 -999.00 -999.00 -999.00 2555.00 2543.00 2519.00 2480.00 2451.00 2418.00 2387.00
      2368.00 2355.00 2343.00 2335.00 2325.00 2309.00 2294.00 2276.00 2253.00 2231.00 2212.00 2192.00 2179.00 2172.00 2157.00
      2141.00 2130.00 2123.00 2115.00 2104.00 2094.00 2087.00 2082.00 2077.00 2067.00 2058.00 2059.00 2072.00 2075.00 2074.00
      2062.00 2040.00 2024.00 2017.00 2013.00 2010.00 2012.00 2018.00 2016.00 2011.00 1999.00 1994.00 1999.00 2008.00 2010.00
      2017.00 2023.00 2030.00 2035.00 2034.00 2029.00 2032.00 2040.00 2049.00 2054.00 2050.00 2048.00 2034.00 2036.00 2041.00
      2044.00 -999.00 -999.00 -999.00 -999.00 -999.00
  33  -999.00 -999.00 -999.00 -999.00 -999.00 -999.00 -999.00 -999.00 2554.00 2551.00 2517.00 2481.00 2450.00 2419.00 2388.00
      2374.00 2362.00 2353.00 2346.00 2336.00 2320.00 2301.00 2274.00 2253.00 2232.00 2212.00 2199.00 2191.00 2180.00 2162.00
      2145.00 2134.00 2126.00 2116.00 2108.00 2102.00 2095.00 2088.00 2084.00 2070.00 2061.00 2067.00 2077.00 2079.00 2078.00
      2068.00 2046.00 2027.00 2019.00 2014.00 2011.00 2004.00 2005.00 2008.00 2005.00 1999.00 1991.00 1991.00 1994.00 2000.00
      2006.00 2014.00 2021.00 2025.00 2024.00 2021.00 2027.00 2037.00 2044.00 2047.00 2044.00 2042.00 2030.00 2029.00 2037.00
      2039.00 -999.00 -999.00 -999.00 -999.00 -999.00
  34  -999.00 -999.00 -999.00 -999.00 -999.00 -999.00 2558.00 2548.00 2550.00 2538.00 2508.00 2471.00 2442.00 2415.00 2396.00
      2386.00 2379.00 2373.00 2367.00 2356.00 2336.00 2307.00 2276.00 2257.00 2239.00 2221.00 2211.00 2207.00 2195.00 2172.00
      2155.00 2142.00 2130.00 2121.00 2114.00 2107.00 2099.00 2095.00 2089.00 2075.00 2066.00 2068.00 2077.00 2080.00 2074.00
      2060.00 2049.00 2033.00 2023.00 2020.00 2016.00 2004.00 1994.00 1991.00 1993.00 1991.00 1990.00 1987.00 1986.00 1988.00
      1993.00 2002.00 2008.00 2010.00 2010.00 2012.00 2022.00 2032.00 2039.00 2040.00 2036.00 2035.00 2026.00 2018.00 2029.00
      2034.00 -999.00 -999.00 -999.00 -999.00 -999.00
  35  -999.00 -999.00 -999.00 -999.00 -999.00 2574.00 2555.00 2542.00 2536.00 2524.00 2491.00 2455.00 2430.00 2409.00 2397.00
      2390.00 2382.00 2377.00 2372.00 2367.00 2348.00 2318.00 2281.00 2260.00 2246.00 2224.00 2211.00 2205.00 2197.00 2177.00
      2161.00 2147.00 2136.00 2128.00 2119.00 2111.00 2104.00 2099.00 2092.00 2077.00 2070.00 2072.00 2080.00 2079.00 2065.00
      2055.00 2045.00 2033.00 2028.00 2026.00 2015.00 2003.00 1995.00 1990.00 1986.00 1984.00 1989.00 1989.00 1981.00 1981.00
      1983.00 1988.00 1993.00 1996.00 1997.00 2004.00 2014.00 2024.00 2031.00 2032.00 2030.00 2028.00 2019.00 2011.00 2020.00
      2028.00 -999.00 -999.00 -999.00 -999.00 -999.00
  36  -999.00 -999.00 -999.00 -999.00 -999.00 2571.00 2554.00 2536.00 2526.00 2504.00 2471.00 2440.00 2417.00 2397.00 2387.00
      2379.00 2368.00 2359.00 2358.00 2359.00 2352.00 2330.00 2293.00 2268.00 2248.00 2232.00 2218.00 2197.00 2185.00 2173.00
      2161.00 2151.00 2142.00 2132.00 2121.00 2113.00 2107.00 2103.00 2094.00 2077.00 2074.00 2080.00 2085.00 2084.00 2066.00
      2055.00 2044.00 2037.00 2037.00 2033.00 2017.00 2005.00 1997.00 1992.00 1987.00 1983.00 1980.00 1979.00 1977.00 1976.00
      1976.00 1978.00 1980.00 1982.00 1989.00 1998.00 2006.00 2013.00 2018.00 2019.00 2023.00 2019.00 2007.00 2009.00 2020.00
      2026.00 -999.00 -999.00 -999.00 -999.00 -999.00
  37  -999.00 -999.00 -999.00 -999.00 -999.00 2571.00 2554.00 2534.00 2514.00 2484.00 2453.00 2423.00 2402.00 2383.00 2369.00
      2359.00 2349.00 2342.00 2339.00 2339.00 2338.00 2326.00 2298.00 2269.00 2254.00 2249.00 2235.00 2216.00 2200.00 2187.00
      2175.00 2158.00 2144.00 2133.00 2123.00 2117.00 2112.00 2104.00 2092.00 2081.00 2088.00 2093.00 2093.00 2090.00 2079.00
      2061.00 2048.00 2048.00 2051.00 2045.00 2028.00 2012.00 2000.00 1994.00 1989.00 1985.00 1982.00 1979.00 1975.00 1974.00
      1973.00 1973.00 1973.00 1976.00 1984.00 1991.00 1996.00 2000.00 2004.00 2003.00 2001.00 1997.00 1995.00 2007.00 2017.00
      2023.00 -999.00 -999.00 -999.00 -999.00 -999.00
  38  -999.00 -999.00 -999.00 -999.00 -999.00 2571.00 2554.00 2534.00 2502.00 2471.00 2438.00 2412.00 2388.00 2367.00 2359.00
      2351.00 2344.00 2337.00 2332.00 2326.00 2318.00 2308.00 2294.00 2288.00 2276.00 2259.00 2241.00 2226.00 2210.00 2197.00
      2181.00 2161.00 2146.00 2137.00 2129.00 2121.00 2114.00 2104.00 2090.00 2094.00 2105.00 2105.00 2102.00 2096.00 2087.00
      2068.00 2055.00 2058.00 2063.00 2055.00 2037.00 2016.00 2005.00 1998.00 1992.00 1987.00 1985.00 1982.00 1978.00 1974.00
      1972.00 1971.00 1970.00 1973.00 1979.00 1983.00 1986.00 1986.00 1989.00 1988.00 1984.00 1977.00 1982.00 1995.00 2011.00
      2016.00 2018.00 -999.00 -999.00 -999.00 -999.00
  39  -999.00 -999.00 -999.00 -999.00 -999.00 2573.00 2556.00 2525.00 2487.00 2455.00 2426.00 2405.00 2382.00 2364.00 2359.00
      2352.00 2346.00 2341.00 2340.00 2338.00 2332.00 2326.00 2316.00 2305.00 2285.00 2267.00 2251.00 2235.00 2215.00 2197.00
      2182.00 2163.00 2150.00 2142.00 2133.00 2125.00 2115.00 2102.00 2094.00 2108.00 2116.00 2113.00 2109.00 2103.00 2090.00
      2075.00 2066.00 2068.00 2074.00 2060.00 2040.00 2024.00 2012.00 2004.00 1998.00 1994.00 1991.00 1987.00 1983.00 1976.00
      1975.00 1973.00 1970.00 1968.00 1968.00 1972.00 1975.00 1973.00 1973.00 1972.00 1970.00 1968.00 1971.00 1982.00 1999.00
      2013.00 2015.00 -999.00 -999.00 -999.00 -999.00
  40  -999.00 -999.00 -999.00 -999.00 2577.00 2567.00 2542.00 2504.00 2475.00 2440.00 2412.00 2399.00 2388.00 2372.00 2367.00
      2361.00 2355.00 2355.00 2356.00 2357.00 2354.00 2344.00 2328.00 2311.00 2295.00 2277.00 2258.00 2235.00 2213.00 2196.00
      2182.00 2166.00 2153.00 2144.00 2136.00 2126.00 2115.00 2103.00 2103.00 2119.00 2126.00 2122.00 2117.00 2115.00 2100.00
      2082.00 2075.00 2071.00 2078.00 2075.00 2058.00 2034.00 2020.00 2013.00 2008.00 2004.00 1999.00 1999.00 1995.00 1989.00
      1986.00 1976.00 1974.00 1973.00 1971.00 1965.00 1962.00 1961.00 1960.00 1959.00 1959.00 1960.00 1963.00 1971.00 1986.00
      2003.00 2010.00 2010.00 -999.00 -999.00 -999.00
  41  -999.00 -999.00 -999.00 -999.00 2577.00 2555.00 2522.00 2486.00 2461.00 2427.00 2402.00 2394.00 2388.00 2385.00 2385.00
      2376.00 2374.00 2374.00 2372.00 2371.00 2367.00 2350.00 2328.00 2311.00 2294.00 2275.00 2255.00 2230.00 2213.00 2200.00
      2187.00 2172.00 2156.00 2144.00 2137.00 2125.00 2114.00 2105.00 2114.00 2132.00 2141.00 2133.00 2123.00 2121.00 2118.00
      2095.00 2082.00 2080.00 2089.00 2088.00 2076.00 2048.00 2033.00 2027.00 2024.00 2022.00 2017.00 2016.00 2010.00 2011.00
      2003.00 1986.00 1979.00 1981.00 1988.00 1993.00 1987.00 1971.00 1959.00 1957.00 1953.00 1953.00 1952.00 1958.00 1967.00
      1977.00 1985.00 1988.00 1995.00 -999.00 -999.00
  42  -999.00 -999.00 -999.00 2590.00 2572.00 2540.00 2506.00 2472.00 2444.00 2417.00 2401.00 2397.00 2400.00 2406.00 2407.00
      2402.00 2401.00 2392.00 2378.00 2367.00 2351.00 2336.00 2319.00 2304.00 2287.00 2270.00 2253.00 2231.00 2216.00 2206.00
      2193.00 2178.00 2161.00 2147.00 2137.00 2124.00 2113.00 2109.00 2122.00 2143.00 2152.00 2145.00 2131.00 2121.00 2119.00
      2111.00 2091.00 2093.00 2101.00 2097.00 2087.00 2069.00 2057.00 2047.00 2046.00 2042.00 2036.00 2032.00 2027.00 2020.00
      2006.00 1992.00 1986.00 1991.00 2001.00 2006.00 2005.00 2001.00 1980.00 1957.00 1951.00 1947.00 1944.00 1946.00 1951.00
      1957.00 1964.00 1966.00 1965.00 -999.00 -999.00
  43  -999.00 -999.00 -999.00 2594.00 2561.00 2522.00 2493.00 2469.00 2441.00 2420.00 2410.00 2414.00 2418.00 2425.00 2428.00
      2427.00 2421.00 2405.00 2374.00 2353.00 2338.00 2323.00 2310.00 2297.00 2281.00 2266.00 2250.00 2237.00 2225.00 2207.00
      2196.00 2181.00 2165.00 2149.00 2142.00 2136.00 2126.00 2113.00 2120.00 2139.00 2147.00 2144.00 2137.00 2124.00 2118.00
      2113.00 2099.00 2104.00 2110.00 2108.00 2102.00 2094.00 2083.00 2074.00 2068.00 2063.00 2053.00 2043.00 2032.00 2019.00
      2006.00 1995.00 1993.00 2002.00 2010.00 2013.00 2014.00 2012.00 2000.00 1968.00 1956.00 1949.00 1944.00 1941.00 1940.00
      1942.00 1945.00 1946.00 1942.00 1925.00 -999.00
  44  -999.00 -999.00 2611.00 2583.00 2556.00 2533.00 2505.00 2478.00 2453.00 2434.00 2428.00 2430.00 2434.00 2443.00 2445.00
      2443.00 2437.00 2421.00 2393.00 2367.00 2344.00 2324.00 2310.00 2297.00 2283.00 2272.00 2257.00 2241.00 2230.00 2215.00
      2199.00 2182.00 2169.00 2156.00 2149.00 2146.00 2143.00 2127.00 2118.00 2129.00 2138.00 2140.00 2139.00 2131.00 2118.00
      2108.00 2102.00 2110.00 2115.00 2120.00 2120.00 2115.00 2107.00 2100.00 2091.00 2080.00 2067.00 2053.00 2032.00 2020.00
      2011.00 2000.00 2001.00 2011.00 2018.00 2021.00 2020.00 2015.00 1998.00 1976.00 1961.00 1953.00 1947.00 1942.00 1939.00
      1936.00 1935.00 1934.00 1932.00 1915.00 -999.00
  45  -999.00 2631.00 2590.00 2556.00 2537.00 2533.00 2515.00 2491.00 2462.00 2446.00 2444.00 2443.00 2452.00 2456.00 2458.00
      2459.00 2457.00 2441.00 2414.00 2385.00 2356.00 2333.00 2315.00 2304.00 2288.00 2276.00 2261.00 2242.00 2229.00 2217.00
      2201.00 2184.00 2173.00 2163.00 2156.00 2152.00 2149.00 2138.00 2122.00 2124.00 2133.00 2140.00 2144.00 2141.00 2128.00
      2113.00 2105.00 2110.00 2119.00 2127.00 2133.00 2135.00 2134.00 2127.00 2115.00 2098.00 2077.00 2058.00 2035.00 2022.00
      2014.00 2006.00 2008.00 2015.00 2025.00 2026.00 2024.00 2014.00 1997.00 1978.00 1965.00 1955.00 1949.00 1944.00 1941.00
      1938.00 1936.00 1934.00 1932.00 1915.00 -999.00
  46  -999.00 2624.00 2572.00 2538.00 2536.00 2535.00 2523.00 2501.00 2480.00 2462.00 2452.00 2456.00 2466.00 2468.00 2470.00
      2473.00 2476.00 2463.00 2431.00 2403.00 2372.00 2347.00 2327.00 2311.00 2299.00 2286.00 2266.00 2244.00 2227.00 2215.00
      2203.00 2188.00 2175.00 2166.00 2159.00 2154.00 2149.00 2138.00 2126.00 2125.00 2133.00 2143.00 2150.00 2152.00 2142.00
      2125.00 2109.00 2111.00 2125.00 2136.00 2146.00 2153.00 2157.00 2151.00 2133.00 2113.00 2086.00 2059.00 2039.00 2027.00
      2020.00 2011.00 2012.00 2018.00 2026.00 2029.00 2025.00 2012.00 2000.00 1977.00 1965.00 1956.00 1950.00 1946.00 1943.00
      1943.00 1940.00 1938.00 -999.00 -999.00 -999.00
  47  2649.00 2623.00 2570.00 2541.00 2529.00 2521.00 2521.00 2517.00 2493.00 2473.00 2473.00 2481.00 2482.00 2481.00 2483.00
      2486.00 2489.00 2473.00 2442.00 2415.00 2387.00 2358.00 2337.00 2321.00 2309.00 2296.00 2272.00 2249.00 2229.00 2212.00
      2202.00 2189.00 2176.00 2167.00 2159.00 2152.00 2145.00 2134.00 2127.00 2128.00 2136.00 2147.00 2156.00 2161.00 2157.00
      2138.00 2117.00 2112.00 2128.00 2143.00 2158.00 2172.00 2175.00 2164.00 2147.00 2124.00 2092.00 2062.00 2043.00 2033.00
      2027.00 2018.00 2019.00 2022.00 2027.00 2029.00 2020.00 2012.00 1999.00 1982.00 1971.00 1961.00 1954.00 1950.00 1951.00
      1950.00 1948.00 1944.00 -999.00 -999.00 -999.00
  48  -999.00 2631.00 2589.00 2554.00 2537.00 2525.00 2540.00 2536.00 2505.00 2496.00 2499.00 2504.00 2500.00 2494.00 2496.00
      2500.00 2500.00 2484.00 2461.00 2429.00 2402.00 2371.00 2347.00 2330.00 2315.00 2300.00 2277.00 2254.00 2232.00 2212.00
      2198.00 2187.00 2176.00 2166.00 2158.00 2149.00 2142.00 2133.00 2129.00 2131.00 2139.00 2149.00 2159.00 2165.00 2167.00
      2152.00 2125.00 2115.00 2124.00 2144.00 2169.00 2185.00 2192.00 2177.00 2159.00 2135.00 2101.00 2072.00 2049.00 2035.00
      2029.00 2026.00 2027.00 2028.00 2032.00 2025.00 2016.00 2008.00 1998.00 1986.00 1976.00 1962.00 1957.00 1957.00 1964.00
      1960.00 1956.00 -999.00 -999.00 -999.00 -999.00
  49  -999.00 -999.00 2618.00 2588.00 2565.00 2552.00 2568.00 2560.00 2543.00 2522.00 2523.00 2525.00 2521.00 2509.00 2509.00
      2513.00 2513.00 2496.00 2475.00 2445.00 2417.00 2388.00 2358.00 2338.00 2319.00 2303.00 2282.00 2259.00 2236.00 2212.00
      2195.00 2183.00 2173.00 2164.00 2156.00 2147.00 2141.00 2134.00 2132.00 2133.00 2141.00 2150.00 2161.00 2169.00 2174.00
      2163.00 2137.00 2118.00 2120.00 2140.00 2172.00 2196.00 2207.00 2194.00 2169.00 2145.00 2112.00 2080.00 2054.00 2039.00
      2034.00 2035.00 2036.00 2034.00 2031.00 2023.00 2013.00 2005.00 1995.00 1984.00 1974.00 1966.00 1963.00 1969.00 1978.00
      1974.00 -999.00 -999.00 -999.00 -999.00 -999.00
  50  -999.00 -999.00 -999.00 2622.00 2603.00 2595.00 2591.00 2589.00 2582.00 2559.00 2553.00 2544.00 2533.00 2526.00 2523.00
      2526.00 2523.00 2506.00 2483.00 2453.00 2426.00 2401.00 2370.00 2347.00 2325.00 2309.00 2287.00 2261.00 2236.00 2210.00
      2197.00 2182.00 2170.00 2161.00 2153.00 2146.00 2141.00 2136.00 2135.00 2142.00 2152.00 2161.00 2169.00 2178.00 2181.00
      2175.00 2150.00 2126.00 2121.00 2136.00 2170.00 2199.00 2214.00 2205.00 2181.00 2152.00 2120.00 2089.00 2066.00 2049.00
      2042.00 2044.00 2044.00 2040.00 2030.00 2022.00 2013.00 2005.00 1995.00 1984.00 1976.00 1972.00 1969.00 1974.00 1986.00
      1991.00 -999.00 -999.00 -999.00 -999.00 -999.00
  51  -999.00 -999.00 -999.00 -999.00 -999.00 -999.00 -999.00 -999.00 2610.00 2594.00 2574.00 2557.00 2540.00 -999.00 -999.00
      2538.00 2535.00 2516.00 2487.00 2456.00 2431.00 2408.00 2380.00 2354.00 2331.00 2313.00 2291.00 2264.00 2238.00 2214.00
      2196.00 2182.00 2169.00 2159.00 2153.00 2147.00 2142.00 2138.00 2144.00 2155.00 2165.00 2175.00 2188.00 2197.00 2199.00
      2192.00 2166.00 2138.00 2127.00 2135.00 2168.00 2199.00 2220.00 2215.00 2192.00 2160.00 2127.00 2099.00 2077.00 2060.00
      2050.00 2052.00 2054.00 2048.00 2033.00 2023.00 2015.00 2007.00 1997.00 1989.00 1982.00 1977.00 1976.00 1980.00 1990.00
      1998.00 -999.00 -999.00 -999.00 -999.00 -999.00
  52  -999.00 -999.00 -999.00 -999.00 -999.00 -999.00 -999.00 -999.00 -999.00 -999.00 -999.00 -999.00 -999.00 -999.00 -999.00
      -999.00 2537.00 2518.00 2488.00 2460.00 2433.00 2410.00 2387.00 2360.00 2339.00 2318.00 2293.00 2266.00 2240.00 2216.00
      2197.00 2181.00 2168.00 2158.00 2154.00 2149.00 2144.00 2144.00 2153.00 2166.00 2180.00 2194.00 2209.00 2220.00 2224.00
      2211.00 2179.00 2154.00 2143.00 2143.00 2169.00 2200.00 2221.00 2221.00 2198.00 2166.00 2134.00 2108.00 2085.00 2073.00
      2059.00 2060.00 2065.00 2061.00 2043.00 2028.00 2019.00 2011.00 2002.00 1994.00 1989.00 1984.00 1985.00 1989.00 1997.00
      2007.00 -999.00 -999.00 -999.00 -999.00 -999.00
  53  -999.00 -999.00 -999.00 -999.00 -999.00 -999.00 -999.00 -999.00 -999.00 -999.00 -999.00 -999.00 -999.00 -999.00 -999.00
      -999.00 -999.00 2514.00 2486.00 2459.00 2432.00 2409.00 2391.00 2374.00 2350.00 2320.00 2293.00 2267.00 2241.00 2217.00
      2199.00 2182.00 2170.00 2159.00 2154.00 2149.00 2148.00 2150.00 2161.00 2174.00 2193.00 2213.00 2230.00 2241.00 2245.00
      2225.00 2192.00 2168.00 2157.00 2154.00 2171.00 2202.00 2222.00 2225.00 2198.00 2167.00 2138.00 2113.00 2093.00 2081.00
      2070.00 2070.00 2074.00 2072.00 2056.00 2034.00 2022.00 2015.00 2007.00 2001.00 1995.00 1992.00 1995.00 2000.00 2006.00
      2013.00 -999.00 -999.00 -999.00 -999.00 -999.00
  54  -999.00 -999.00 -999.00 -999.00 -999.00 -999.00 -999.00 -999.00 -999.00 -999.00 -999.00 -999.00 -999.00 -999.00 -999.00
      -999.00 -999.00 -999.00 2483.00 2457.00 2429.00 2406.00 2391.00 2381.00 2350.00 2321.00 2293.00 2269.00 2242.00 2218.00
      2200.00 2182.00 2170.00 2161.00 2155.00 2151.00 2150.00 2155.00 2163.00 2177.00 2196.00 2219.00 2238.00 2253.00 2258.00
      2232.00 2201.00 2181.00 2169.00 2162.00 2177.00 2204.00 2224.00 2228.00 2200.00 2167.00 2143.00 2118.00 2099.00 2089.00
      2081.00 2080.00 2079.00 2077.00 2066.00 2042.00 2028.00 2021.00 2016.00 2013.00 2001.00 1998.00 2004.00 2010.00 2013.00
      2019.00 -999.00 -999.00 -999.00 -999.00 -999.00
  55  -999.00 -999.00 -999.00 -999.00 -999.00 -999.00 -999.00 -999.00 -999.00 -999.00 -999.00 -999.00 -999.00 -999.00 -999.00
      -999.00 -999.00 -999.00 2481.00 2452.00 2422.00 2402.00 2388.00 2371.00 2344.00 2321.00 2294.00 2268.00 2242.00 2220.00
      2202.00 2185.00 2172.00 2162.00 2155.00 2152.00 2153.00 2158.00 2165.00 2178.00 2196.00 2216.00 2236.00 2254.00 2263.00
      2244.00 2213.00 2194.00 2181.00 2173.00 2182.00 2207.00 2229.00 2233.00 2200.00 2172.00 2152.00 2129.00 2107.00 2099.00
      2094.00 2089.00 2085.00 2080.00 2066.00 2048.00 2036.00 2030.00 2029.00 2025.00 2011.00 2004.00 2013.00 2018.00 2022.00
      2027.00 -999.00 -999.00 -999.00 -999.00 -999.00
  56  -999.00 -999.00 -999.00 -999.00 -999.00 -999.00 -999.00 -999.00 -999.00 -999.00 -999.00 -999.00 -999.00 -999.00 -999.00
      -999.00 -999.00 -999.00 -999.00 -999.00 -999.00 2397.00 2384.00 2366.00 2341.00 2319.00 2293.00 2265.00 2242.00 2221.00
      2204.00 2184.00 2173.00 2163.00 2156.00 2154.00 2155.00 2160.00 2168.00 2181.00 2199.00 2218.00 2237.00 2256.00 2269.00
      2264.00 2230.00 2208.00 2194.00 2185.00 2191.00 2212.00 2236.00 2236.00 2202.00 2180.00 2161.00 2139.00 2118.00 2110.00
      2105.00 2098.00 2091.00 2087.00 2071.00 2053.00 2044.00 2042.00 2041.00 2036.00 2022.00 2011.00 2023.00 2031.00 2034.00
      2040.00 -999.00 -999.00 -999.00 -999.00 -999.00
  57  -999.00 -999.00 -999.00 -999.00 -999.00 -999.00 -999.00 -999.00 -999.00 -999.00 -999.00 -999.00 -999.00 -999.00 -999.00
      -999.00 -999.00 -999.00 -999.00 -999.00 -999.00 -999.00 2379.00 2363.00 2340.00 2317.00 2294.00 2264.00 2242.00 2220.00
      2203.00 2185.00 2174.00 2165.00 2158.00 2156.00 2156.00 2162.00 2170.00 2185.00 2203.00 2222.00 2243.00 2263.00 2277.00
      2276.00 2249.00 2224.00 2209.00 2200.00 2202.00 2220.00 2244.00 2242.00 2209.00 2188.00 2169.00 2149.00 2129.00 2121.00
      2116.00 2109.00 2098.00 2091.00 2078.00 2064.00 2052.00 2055.00 2054.00 2051.00 2036.00 2023.00 2034.00 2049.00 2051.00
      2057.00 -999.00 -999.00 -999.00 -999.00 -999.00
  58  -999.00 -999.00 -999.00 -999.00 -999.00 -999.00 -999.00 -999.00 -999.00 -999.00 -999.00 -999.00 -999.00 -999.00 -999.00
      -999.00 -999.00 -999.00 -999.00 -999.00 -999.00 -999.00 -999.00 2360.00 2342.00 2317.00 2297.00 2264.00 2242.00 2222.00
      2207.00 2188.00 2175.00 2167.00 2161.00 2158.00 2158.00 2164.00 2173.00 2188.00 2207.00 2227.00 2249.00 2272.00 2290.00
      2286.00 2265.00 2239.00 2225.00 2216.00 2213.00 2228.00 2254.00 2248.00 2219.00 2199.00 2179.00 2160.00 2142.00 2136.00
      2131.00 2121.00 2106.00 2094.00 2083.00 2071.00 2064.00 2066.00 2068.00 2067.00 2052.00 2036.00 2043.00 2055.00 2061.00
      2064.00 -999.00 -999.00 -999.00 -999.00 -999.00
  59  -999.00 -999.00 -999.00 -999.00 -999.00 -999.00 -999.00 -999.00 -999.00 -999.00 -999.00 -999.00 -999.00 -999.00 -999.00
      -999.00 -999.00 -999.00 -999.00 -999.00 -999.00 -999.00 -999.00 -999.00 -999.00 -999.00 -999.00 -999.00 -999.00 2220.00
      2208.00 2191.00 2175.00 2167.00 2162.00 2159.00 2161.00 2167.00 2176.00 2191.00 2210.00 2231.00 2252.00 2277.00 2300.00
      2300.00 2277.00 2252.00 2236.00 2228.00 2226.00 2237.00 2260.00 2253.00 2230.00 2214.00 2194.00 2174.00 2157.00 2151.00
      2146.00 2135.00 2117.00 2101.00 2091.00 2080.00 2074.00 2079.00 2083.00 2083.00 2063.00 2047.00 2054.00 2061.00 2067.00
      2069.00 -999.00 -999.00 -999.00 -999.00 -999.00
  60  -999.00 -999.00 -999.00 -999.00 -999.00 -999.00 -999.00 -999.00 -999.00 -999.00 -999.00 -999.00 -999.00 -999.00 -999.00
      -999.00 -999.00 -999.00 -999.00 -999.00 -999.00 -999.00 -999.00 -999.00 -999.00 -999.00 -999.00 -999.00 -999.00 -999.00
      -999.00 2193.00 2179.00 2168.00 2164.00 2162.00 2164.00 2169.00 2179.00 2193.00 2212.00 2233.00 2254.00 2279.00 2307.00
      2312.00 2295.00 2266.00 2245.00 2238.00 2235.00 2243.00 2261.00 2258.00 2243.00 2226.00 2207.00 2189.00 2174.00 2168.00
      2160.00 2148.00 2128.00 2112.00 2100.00 2091.00 2086.00 2089.00 2092.00 2092.00 2066.00 2059.00 2065.00 2073.00 2074.00
      2075.00 -999.00 -999.00 -999.00 -999.00 -999.00
  61  -999.00 -999.00 -999.00 -999.00 -999.00 -999.00 -999.00 -999.00 -999.00 -999.00 -999.00 -999.00 -999.00 -999.00 -999.00
      -999.00 -999.00 -999.00 -999.00 -999.00 -999.00 -999.00 -999.00 -999.00 -999.00 -999.00 -999.00 -999.00 -999.00 -999.00
      -999.00 -999.00 2181.00 2170.00 2166.00 2164.00 2165.00 2170.00 2180.00 2193.00 2213.00 2235.00 2256.00 2279.00 2307.00
      2320.00 2309.00 2278.00 2258.00 2248.00 2245.00 2248.00 2263.00 2268.00 2256.00 2239.00 2220.00 2204.00 2193.00 2190.00
      2180.00 2159.00 2139.00 2123.00 2113.00 2101.00 2098.00 2099.00 2095.00 2088.00 2073.00 2073.00 2075.00 2078.00 2079.00
      2080.00 -999.00 -999.00 -999.00 -999.00 -999.00
  62  -999.00 -999.00 -999.00 -999.00 -999.00 -999.00 -999.00 -999.00 -999.00 -999.00 -999.00 -999.00 -999.00 -999.00 -999.00
      -999.00 -999.00 -999.00 -999.00 -999.00 -999.00 -999.00 -999.00 -999.00 -999.00 -999.00 -999.00 -999.00 -999.00 -999.00
      -999.00 -999.00 -999.00 2174.00 2169.00 -999.00 -999.00 -999.00 -999.00 -999.00 -999.00 -999.00 -999.00 -999.00 -999.00
      -999.00 2321.00 2297.00 2272.00 2260.00 2254.00 2255.00 2269.00 2276.00 2270.00 2254.00 2235.00 2217.00 2209.00 2210.00
      2198.00 2175.00 2151.00 2135.00 2126.00 2115.00 2112.00 2105.00 2095.00 2085.00 2081.00 2084.00 2083.00 2083.00 2084.00
      2085.00 -999.00 -999.00 -999.00 -999.00 -999.00
  63  -999.00 -999.00 -999.00 -999.00 -999.00 -999.00 -999.00 -999.00 -999.00 -999.00 -999.00 -999.00 -999.00 -999.00 -999.00
      -999.00 -999.00 -999.00 -999.00 -999.00 -999.00 -999.00 -999.00 -999.00 -999.00 -999.00 -999.00 -999.00 -999.00 -999.00
      -999.00 -999.00 -999.00 -999.00 -999.00 -999.00 -999.00 -999.00 -999.00 -999.00 -999.00 -999.00 -999.00 -999.00 -999.00
      -999.00 2330.00 2315.00 2292.00 2278.00 2267.00 2264.00 2275.00 2285.00 2285.00 2271.00 2254.00 2237.00 2227.00 2226.00
      2212.00 2187.00 2166.00 2149.00 2136.00 2127.00 2121.00 2106.00 2095.00 2089.00 2091.00 2091.00 2089.00 2091.00 2094.00
      2097.00 -999.00 -999.00 -999.00 -999.00 -999.00
  64  -999.00 -999.00 -999.00 -999.00 -999.00 -999.00 -999.00 -999.00 -999.00 -999.00 -999.00 -999.00 -999.00 -999.00 -999.00
      -999.00 -999.00 -999.00 -999.00 -999.00 -999.00 -999.00 -999.00 -999.00 -999.00 -999.00 -999.00 -999.00 -999.00 -999.00
      -999.00 -999.00 -999.00 -999.00 -999.00 -999.00 -999.00 -999.00 -999.00 -999.00 -999.00 -999.00 -999.00 -999.00 -999.00
      -999.00 -999.00 2326.00 2314.00 2306.00 2286.00 2274.00 2280.00 2293.00 2300.00 2291.00 2277.00 2263.00 2249.00 2242.00
      2227.00 2204.00 2181.00 2162.00 2148.00 2131.00 2118.00 2106.00 2099.00 2097.00 2099.00 2097.00 2097.00 2101.00 2106.00
      2110.00 -999.00 -999.00 -999.00 -999.00 -999.00
  65  -999.00 -999.00 -999.00 -999.00 -999.00 -999.00 -999.00 -999.00 -999.00 -999.00 -999.00 -999.00 -999.00 -999.00 -999.00
      -999.00 -999.00 -999.00 -999.00 -999.00 -999.00 -999.00 -999.00 -999.00 -999.00 -999.00 -999.00 -999.00 -999.00 -999.00
      -999.00 -999.00 -999.00 -999.00 -999.00 -999.00 -999.00 -999.00 -999.00 -999.00 -999.00 -999.00 -999.00 -999.00 -999.00
      -999.00 -999.00 -999.00 2325.00 2321.00 2301.00 2283.00 2284.00 2296.00 2308.00 2309.00 2297.00 2284.00 2272.00 2261.00
      2244.00 2220.00 2192.00 2170.00 2153.00 2132.00 2118.00 2109.00 2105.00 2105.00 2105.00 2105.00 2108.00 2113.00 2116.00
      2117.00 -999.00 -999.00 -999.00 -999.00 -999.00
  66  -999.00 -999.00 -999.00 -999.00 -999.00 -999.00 -999.00 -999.00 -999.00 -999.00 -999.00 -999.00 -999.00 -999.00 -999.00
      -999.00 -999.00 -999.00 -999.00 -999.00 -999.00 -999.00 -999.00 -999.00 -999.00 -999.00 -999.00 -999.00 -999.00 -999.00
      -999.00 -999.00 -999.00 -999.00 -999.00 -999.00 -999.00 -999.00 -999.00 -999.00 -999.00 -999.00 -999.00 -999.00 -999.00
      -999.00 -999.00 -999.00 -999.00 2331.00 2312.00 2296.00 2292.00 2302.00 2317.00 2323.00 2314.00 2301.00 2287.00 2272.00
      2255.00 2229.00 2200.00 2172.00 2154.00 2135.00 2121.00 2113.00 2112.00 2112.00 2111.00 2113.00 2117.00 2121.00 2123.00
      2124.00 -999.00 -999.00 -999.00 -999.00 -999.00
  67  -999.00 -999.00 -999.00 -999.00 -999.00 -999.00 -999.00 -999.00 -999.00 -999.00 -999.00 -999.00 -999.00 -999.00 -999.00
      -999.00 -999.00 -999.00 -999.00 -999.00 -999.00 -999.00 -999.00 -999.00 -999.00 -999.00 -999.00 -999.00 -999.00 -999.00
      -999.00 -999.00 -999.00 -999.00 -999.00 -999.00 -999.00 -999.00 -999.00 -999.00 -999.00 -999.00 -999.00 -999.00 -999.00
      -999.00 -999.00 -999.00 -999.00 2333.00 2319.00 2305.00 2298.00 2307.00 2325.00 2335.00 2326.00 2314.00 2297.00 2277.00
      2257.00 2232.00 2202.00 2170.00 2153.00 2135.00 2124.00 2119.00 2118.00 2118.00 2118.00 2120.00 2124.00 2129.00 2131.00
      2132.00 -999.00 -999.00 -999.00 -999.00 -999.00
  68  -999.00 -999.00 -999.00 -999.00 -999.00 -999.00 -999.00 -999.00 -999.00 -999.00 -999.00 -999.00 -999.00 -999.00 -999.00
      -999.00 -999.00 -999.00 -999.00 -999.00 -999.00 -999.00 -999.00 -999.00 -999.00 -999.00 -999.00 -999.00 -999.00 -999.00
      -999.00 -999.00 -999.00 -999.00 -999.00 -999.00 -999.00 -999.00 -999.00 -999.00 -999.00 -999.00 -999.00 -999.00 -999.00
      -999.00 -999.00 -999.00 -999.00 -999.00 2322.00 2307.00 2301.00 2307.00 2323.00 2343.00 2336.00 2321.00 2299.00 2277.00
      2257.00 2230.00 2201.00 2170.00 2154.00 2138.00 2132.00 2126.00 2125.00 2124.00 2122.00 2126.00 2131.00 2136.00 2140.00
      2141.00 -999.00 -999.00 -999.00 -999.00 -999.00
  69  -999.00 -999.00 -999.00 -999.00 -999.00 -999.00 -999.00 -999.00 -999.00 -999.00 -999.00 -999.00 -999.00 -999.00 -999.00
      -999.00 -999.00 -999.00 -999.00 -999.00 -999.00 -999.00 -999.00 -999.00 -999.00 -999.00 -999.00 -999.00 -999.00 -999.00
      -999.00 -999.00 -999.00 -999.00 -999.00 -999.00 -999.00 -999.00 -999.00 -999.00 -999.00 -999.00 -999.00 -999.00 -999.00
      -999.00 -999.00 -999.00 -999.00 -999.00 -999.00 -999.00 -999.00 -999.00 -999.00 -999.00 2341.00 2323.00 2301.00 2279.00
      2257.00 2228.00 2199.00 2172.00 2157.00 2148.00 2143.00 2136.00 2134.00 2131.00 2128.00 2131.00 2136.00 2142.00 2148.00
      2149.00 -999.00 -999.00 -999.00 -999.00 -999.00
  70  -999.00 -999.00 -999.00 -999.00 -999.00 -999.00 -999.00 -999.00 -999.00 -999.00 -999.00 -999.00 -999.00 -999.00 -999.00
      -999.00 -999.00 -999.00 -999.00 -999.00 -999.00 -999.00 -999.00 -999.00 -999.00 -999.00 -999.00 -999.00 -999.00 -999.00
      -999.00 -999.00 -999.00 -999.00 -999.00 -999.00 -999.00 -999.00 -999.00 -999.00 -999.00 -999.00 -999.00 -999.00 -999.00
      -999.00 -999.00 -999.00 -999.00 -999.00 -999.00 -999.00 -999.00 -999.00 -999.00 -999.00 2347.00 2328.00 2305.00 2282.00
      2256.00 2227.00 2201.00 2178.00 2164.00 2156.00 2147.00 2141.00 2136.00 2132.00 2131.00 2134.00 2139.00 2145.00 2151.00
      -999.00 -999.00 -999.00 -999.00 -999.00 -999.00
  71  -999.00 -999.00 -999.00 -999.00 -999.00 -999.00 -999.00 -999.00 -999.00 -999.00 -999.00 -999.00 -999.00 -999.00 -999.00
      -999.00 -999.00 -999.00 -999.00 -999.00 -999.00 -999.00 -999.00 -999.00 -999.00 -999.00 -999.00 -999.00 -999.00 -999.00
      -999.00 -999.00 -999.00 -999.00 -999.00 -999.00 -999.00 -999.00 -999.00 -999.00 -999.00 -999.00 -999.00 -999.00 -999.00
      -999.00 -999.00 -999.00 -999.00 -999.00 -999.00 -999.00 -999.00 -999.00 -999.00 -999.00 -999.00 2338.00 2314.00 2287.00
      2260.00 2234.00 2208.00 2180.00 -999.00 -999.00 -999.00 -999.00 -999.00 -999.00 -999.00 -999.00 -999.00 -999.00 2155.00
      -999.00 -999.00 -999.00 -999.00 -999.00 -999.00
  72  -999.00 -999.00 -999.00 -999.00 -999.00 -999.00 -999.00 -999.00 -999.00 -999.00 -999.00 -999.00 -999.00 -999.00 -999.00
      -999.00 -999.00 -999.00 -999.00 -999.00 -999.00 -999.00 -999.00 -999.00 -999.00 -999.00 -999.00 -999.00 -999.00 -999.00
      -999.00 -999.00 -999.00 -999.00 -999.00 -999.00 -999.00 -999.00 -999.00 -999.00 -999.00 -999.00 -999.00 -999.00 -999.00
      -999.00 -999.00 -999.00 -999.00 -999.00 -999.00 -999.00 -999.00 -999.00 -999.00 -999.00 -999.00 -999.00 2323.00 2295.00
      2267.00 2240.00 -999.00 -999.00 -999.00 -999.00 -999.00 -999.00 -999.00 -999.00 -999.00 -999.00 -999.00 -999.00 -999.00
      -999.00 -999.00 -999.00 -999.00 -999.00 -999.00
  73  -999.00 -999.00 -999.00 -999.00 -999.00 -999.00 -999.00 -999.00 -999.00 -999.00 -999.00 -999.00 -999.00 -999.00 -999.00
      -999.00 -999.00 -999.00 -999.00 -999.00 -999.00 -999.00 -999.00 -999.00 -999.00 -999.00 -999.00 -999.00 -999.00 -999.00
      -999.00 -999.00 -999.00 -999.00 -999.00 -999.00 -999.00 -999.00 -999.00 -999.00 -999.00 -999.00 -999.00 -999.00 -999.00
      -999.00 -999.00 -999.00 -999.00 -999.00 -999.00 -999.00 -999.00 -999.00 -999.00 -999.00 -999.00 -999.00 2329.00 2305.00
      2274.00 -999.00 -999.00 -999.00 -999.00 -999.00 -999.00 -999.00 -999.00 -999.00 -999.00 -999.00 -999.00 -999.00 -999.00
      -999.00 -999.00 -999.00 -999.00 -999.00 -999.00
1
              HEAD IN LAYER   2 AT END OF TIME STEP *** IN STRESS PERIOD    2
  ---------------------------------------------------------------------------

           1       2       3       4       5       6       7       8       9      10      11      12      13      14      15
          16      17      18      19      20      21      22      23      24      25      26      27      28      29      30
          31      32      33      34      35      36      37      38      39      40      41      42      43      44      45
          46      47      48      49      50      51      52      53      54      55      56      57      58      59      60
          61      62      63      64      65      66      67      68      69      70      71      72      73      74      75
          76      77      78      79      80      81
 ...........................................................................................................................
   1  -999.00 -999.00 -999.00 -999.00 -999.00 -999.00 -999.00 -999.00 -999.00 -999.00 -999.00 -999.00 -999.00 -999.00 -999.00
      -999.00 -999.00 -999.00 -999.00 -999.00 -999.00 -999.00 -999.00 -999.00 -999.00 -999.00 -999.00 -999.00 -999.00 -999.00
      -999.00 -999.00 -999.00 -999.00 -999.00 -999.00 -999.00 -999.00 -999.00 -999.00 -999.00 -999.00 -999.00 -999.00 -999.00
      -999.00 -999.00 -999.00 -999.00 -999.00 -999.00 -999.00 -999.00 -999.00 -999.00 -999.00 -999.00 -999.00 -999.00 -999.00
      -999.00 -999.00 -999.00 2113.00 2112.00 -999.00 -999.00 -999.00 -999.00 -999.00 -999.00 -999.00 -999.00 -999.00 -999.00
      -999.00 -999.00 -999.00 -999.00 -999.00 -999.00
   2  -999.00 -999.00 -999.00 -999.00 -999.00 -999.00 -999.00 -999.00 -999.00 -999.00 -999.00 -999.00 -999.00 -999.00 -999.00
      -999.00 -999.00 -999.00 -999.00 -999.00 -999.00 -999.00 -999.00 -999.00 -999.00 -999.00 -999.00 -999.00 -999.00 -999.00
      -999.00 -999.00 -999.00 -999.00 -999.00 -999.00 -999.00 -999.00 -999.00 -999.00 -999.00 -999.00 -999.00 -999.00 -999.00
      -999.00 -999.00 -999.00 -999.00 -999.00 -999.00 -999.00 -999.00 -999.00 -999.00 -999.00 -999.00 -999.00 -999.00 -999.00
      -999.00 -999.00 2112.00 2112.00 2111.00 -999.00 -999.00 -999.00 -999.00 -999.00 -999.00 -999.00 -999.00 -999.00 -999.00
      -999.00 -999.00 -999.00 -999.00 -999.00 -999.00
   3  -999.00 -999.00 -999.00 -999.00 -999.00 -999.00 -999.00 -999.00 -999.00 -999.00 -999.00 -999.00 -999.00 -999.00 -999.00
      -999.00 -999.00 -999.00 -999.00 -999.00 -999.00 -999.00 -999.00 -999.00 -999.00 -999.00 -999.00 -999.00 -999.00 -999.00
      -999.00 -999.00 -999.00 -999.00 -999.00 -999.00 -999.00 -999.00 -999.00 -999.00 -999.00 -999.00 -999.00 -999.00 -999.00
      -999.00 -999.00 -999.00 -999.00 -999.00 -999.00 -999.00 -999.00 -999.00 -999.00 -999.00 -999.00 -999.00 -999.00 -999.00
      -999.00 -999.00 2112.00 2111.00 2110.00 -999.00 -999.00 -999.00 -999.00 -999.00 -999.00 -999.00 -999.00 -999.00 -999.00
      -999.00 -999.00 -999.00 -999.00 -999.00 -999.00
   4  -999.00 -999.00 -999.00 -999.00 -999.00 -999.00 -999.00 -999.00 -999.00 -999.00 -999.00 -999.00 -999.00 -999.00 -999.00
      -999.00 -999.00 -999.00 -999.00 -999.00 -999.00 -999.00 -999.00 -999.00 -999.00 -999.00 -999.00 -999.00 -999.00 -999.00
      -999.00 -999.00 -999.00 -999.00 -999.00 -999.00 -999.00 -999.00 -999.00 -999.00 -999.00 -999.00 -999.00 -999.00 -999.00
      -999.00 -999.00 -999.00 -999.00 -999.00 -999.00 -999.00 -999.00 -999.00 -999.00 -999.00 -999.00 -999.00 -999.00 -999.00
      -999.00 2111.00 2111.00 2110.00 2109.00 -999.00 -999.00 -999.00 -999.00 -999.00 -999.00 -999.00 -999.00 -999.00 -999.00
      -999.00 -999.00 -999.00 -999.00 -999.00 -999.00
   5  -999.00 -999.00 -999.00 -999.00 -999.00 -999.00 -999.00 -999.00 -999.00 -999.00 -999.00 -999.00 -999.00 -999.00 -999.00
      -999.00 -999.00 -999.00 -999.00 -999.00 -999.00 -999.00 -999.00 -999.00 -999.00 -999.00 -999.00 -999.00 -999.00 -999.00
      -999.00 -999.00 -999.00 -999.00 -999.00 -999.00 -999.00 -999.00 -999.00 -999.00 -999.00 -999.00 -999.00 -999.00 -999.00
      -999.00 -999.00 -999.00 -999.00 -999.00 -999.00 -999.00 -999.00 -999.00 -999.00 -999.00 -999.00 -999.00 -999.00 -999.00
      -999.00 2115.00 2110.00 2109.00 2108.00 2107.00 -999.00 -999.00 -999.00 -999.00 -999.00 -999.00 -999.00 -999.00 -999.00
      -999.00 -999.00 -999.00 -999.00 -999.00 -999.00
   6  -999.00 -999.00 -999.00 -999.00 -999.00 -999.00 -999.00 -999.00 -999.00 -999.00 -999.00 -999.00 -999.00 -999.00 -999.00
      -999.00 -999.00 -999.00 -999.00 -999.00 -999.00 -999.00 -999.00 -999.00 -999.00 -999.00 -999.00 -999.00 -999.00 -999.00
      -999.00 -999.00 -999.00 -999.00 -999.00 -999.00 -999.00 -999.00 -999.00 -999.00 -999.00 -999.00 -999.00 -999.00 -999.00
      -999.00 -999.00 -999.00 -999.00 -999.00 -999.00 -999.00 -999.00 -999.00 -999.00 -999.00 -999.00 -999.00 -999.00 -999.00
      -999.00 2110.00 2109.00 2107.00 2106.00 2105.00 2105.00 -999.00 -999.00 -999.00 -999.00 -999.00 -999.00 -999.00 -999.00
      -999.00 -999.00 -999.00 -999.00 -999.00 -999.00
   7  -999.00 -999.00 -999.00 -999.00 -999.00 -999.00 -999.00 -999.00 -999.00 -999.00 -999.00 -999.00 -999.00 -999.00 -999.00
      -999.00 -999.00 -999.00 -999.00 -999.00 -999.00 -999.00 -999.00 -999.00 -999.00 -999.00 -999.00 -999.00 -999.00 -999.00
      -999.00 -999.00 -999.00 -999.00 -999.00 -999.00 -999.00 -999.00 -999.00 -999.00 -999.00 -999.00 -999.00 -999.00 -999.00
      -999.00 -999.00 -999.00 -999.00 -999.00 -999.00 -999.00 -999.00 -999.00 -999.00 -999.00 -999.00 -999.00 -999.00 -999.00
      2109.00 2116.00 2108.00 2106.00 2105.00 2104.00 2104.00 2103.00 -999.00 -999.00 -999.00 -999.00 -999.00 -999.00 -999.00
      -999.00 -999.00 -999.00 -999.00 -999.00 -999.00
   8  -999.00 -999.00 -999.00 -999.00 -999.00 -999.00 -999.00 -999.00 -999.00 -999.00 -999.00 -999.00 -999.00 -999.00 -999.00
      -999.00 -999.00 -999.00 -999.00 -999.00 -999.00 -999.00 -999.00 -999.00 -999.00 -999.00 -999.00 -999.00 -999.00 -999.00
      -999.00 -999.00 -999.00 -999.00 -999.00 -999.00 -999.00 -999.00 -999.00 -999.00 -999.00 -999.00 -999.00 -999.00 -999.00
      -999.00 -999.00 -999.00 -999.00 -999.00 -999.00 -999.00 -999.00 -999.00 -999.00 -999.00 -999.00 -999.00 -999.00 -999.00
      2109.00 2118.00 2107.00 2105.00 2103.00 2103.00 2103.00 2102.00 2101.00 2099.00 2099.00 -999.00 -999.00 -999.00 -999.00
      -999.00 -999.00 -999.00 -999.00 -999.00 -999.00
   9  -999.00 -999.00 -999.00 -999.00 -999.00 -999.00 -999.00 -999.00 -999.00 -999.00 -999.00 -999.00 -999.00 -999.00 -999.00
      -999.00 -999.00 -999.00 -999.00 -999.00 -999.00 -999.00 -999.00 -999.00 -999.00 -999.00 -999.00 -999.00 -999.00 -999.00
      -999.00 -999.00 -999.00 -999.00 -999.00 -999.00 -999.00 -999.00 -999.00 -999.00 -999.00 -999.00 -999.00 -999.00 -999.00
      -999.00 -999.00 -999.00 2155.00 2154.00 -999.00 -999.00 -999.00 -999.00 -999.00 -999.00 -999.00 -999.00 2117.00 2117.00
      2108.00 2107.00 2105.00 2103.00 2102.00 2101.00 2101.00 2101.00 2100.00 2099.00 2097.00 2096.00 2095.00 2094.00 2093.00
      -999.00 -999.00 -999.00 -999.00 -999.00 -999.00
  10  -999.00 -999.00 -999.00 -999.00 -999.00 -999.00 -999.00 -999.00 -999.00 -999.00 -999.00 -999.00 -999.00 -999.00 -999.00
      -999.00 -999.00 -999.00 -999.00 -999.00 -999.00 -999.00 -999.00 -999.00 -999.00 -999.00 -999.00 -999.00 -999.00 -999.00
      -999.00 -999.00 -999.00 -999.00 -999.00 -999.00 -999.00 -999.00 -999.00 -999.00 -999.00 -999.00 -999.00 -999.00 -999.00
      -999.00 -999.00 2156.00 2154.00 2150.00 2151.00 2146.00 2137.00 -999.00 -999.00 -999.00 2114.00 2112.00 2110.00 2114.00
      2107.00 2106.00 2104.00 2102.00 2100.00 2100.00 2099.00 2099.00 2098.00 2097.00 2096.00 2095.00 2094.00 2093.00 2092.00
      2091.00 -999.00 -999.00 -999.00 -999.00 -999.00
  11  -999.00 -999.00 -999.00 -999.00 -999.00 -999.00 -999.00 -999.00 -999.00 -999.00 -999.00 -999.00 -999.00 -999.00 -999.00
      -999.00 -999.00 -999.00 -999.00 -999.00 -999.00 -999.00 -999.00 -999.00 -999.00 -999.00 -999.00 -999.00 -999.00 -999.00
      -999.00 -999.00 -999.00 -999.00 -999.00 -999.00 -999.00 -999.00 -999.00 -999.00 -999.00 -999.00 -999.00 -999.00 -999.00
      -999.00 2158.00 2155.00 2151.00 2146.00 2141.00 2137.00 2132.00 2127.00 2128.00 2125.00 2121.00 2116.00 2109.00 2108.00
      2106.00 2104.00 2102.00 2100.00 2098.00 2098.00 2097.00 2097.00 2096.00 2095.00 2094.00 2093.00 2092.00 2091.00 2090.00
      2089.00 -999.00 -999.00 -999.00 -999.00 -999.00
  12  -999.00 -999.00 -999.00 -999.00 -999.00 -999.00 -999.00 -999.00 -999.00 -999.00 -999.00 -999.00 -999.00 -999.00 -999.00
      -999.00 -999.00 -999.00 -999.00 -999.00 -999.00 -999.00 -999.00 -999.00 -999.00 -999.00 -999.00 -999.00 -999.00 -999.00
      -999.00 -999.00 -999.00 -999.00 -999.00 -999.00 -999.00 -999.00 -999.00 -999.00 -999.00 -999.00 -999.00 -999.00 -999.00
      -999.00 2158.00 2154.00 2148.00 2141.00 2137.00 2132.00 2128.00 2124.00 2127.00 2125.00 2119.00 2110.00 2108.00 2106.00
      2104.00 2102.00 2100.00 2097.00 2096.00 2095.00 2095.00 2094.00 2093.00 2092.00 2091.00 2090.00 2089.00 2088.00 2088.00
      2087.00 2085.00 -999.00 -999.00 -999.00 -999.00
  13  -999.00 -999.00 -999.00 -999.00 -999.00 -999.00 -999.00 -999.00 -999.00 -999.00 -999.00 -999.00 -999.00 -999.00 -999.00
      -999.00 -999.00 -999.00 -999.00 -999.00 -999.00 -999.00 -999.00 -999.00 -999.00 -999.00 -999.00 -999.00 -999.00 -999.00
      -999.00 -999.00 -999.00 -999.00 -999.00 -999.00 -999.00 -999.00 -999.00 -999.00 -999.00 -999.00 -999.00 -999.00 2171.00
      2167.00 2160.00 2154.00 2146.00 2139.00 2135.00 2130.00 2126.00 2121.00 2122.00 2122.00 2116.00 2108.00 2106.00 2104.00
      2102.00 2099.00 2097.00 2095.00 2093.00 2093.00 2092.00 2091.00 2090.00 2089.00 2088.00 2087.00 2086.00 2085.00 2085.00
      2084.00 2083.00 2088.00 -999.00 -999.00 -999.00
  14  -999.00 -999.00 -999.00 -999.00 -999.00 -999.00 -999.00 -999.00 -999.00 -999.00 -999.00 -999.00 -999.00 -999.00 -999.00
      -999.00 -999.00 -999.00 -999.00 -999.00 -999.00 -999.00 -999.00 -999.00 -999.00 -999.00 -999.00 -999.00 -999.00 -999.00
      -999.00 -999.00 -999.00 -999.00 -999.00 -999.00 -999.00 -999.00 -999.00 -999.00 -999.00 2191.00 2186.00 2180.00 2173.00
      2166.00 2160.00 2152.00 2144.00 2137.00 2133.00 2127.00 2122.00 2117.00 2113.00 2110.00 2112.00 2105.00 2103.00 2101.00
      2099.00 2096.00 2094.00 2092.00 2090.00 2089.00 2089.00 2088.00 2086.00 2085.00 2084.00 2083.00 2082.00 2082.00 2081.00
      2081.00 2081.00 2089.00 2093.00 -999.00 -999.00
  15  -999.00 -999.00 -999.00 -999.00 -999.00 -999.00 -999.00 -999.00 -999.00 -999.00 -999.00 -999.00 -999.00 -999.00 -999.00
      -999.00 -999.00 -999.00 -999.00 -999.00 -999.00 -999.00 -999.00 -999.00 -999.00 -999.00 -999.00 -999.00 -999.00 -999.00
      -999.00 -999.00 -999.00 -999.00 -999.00 -999.00 -999.00 -999.00 -999.00 -999.00 2198.00 2192.00 2185.00 2179.00 2172.00
      2165.00 2158.00 2150.00 2143.00 2136.00 2129.00 2122.00 2117.00 2112.00 2108.00 2105.00 2103.00 2101.00 2099.00 2097.00
      2095.00 2093.00 2091.00 2089.00 2087.00 2086.00 2085.00 2084.00 2082.00 2081.00 2079.00 2079.00 2078.00 2077.00 2077.00
      2077.00 2077.00 2086.00 2092.00 2096.00 -999.00
  16  -999.00 -999.00 -999.00 -999.00 -999.00 -999.00 -999.00 -999.00 -999.00 -999.00 -999.00 -999.00 -999.00 -999.00 -999.00
      -999.00 -999.00 -999.00 -999.00 -999.00 -999.00 -999.00 -999.00 -999.00 -999.00 -999.00 -999.00 -999.00 -999.00 -999.00
      -999.00 -999.00 -999.00 -999.00 -999.00 -999.00 -999.00 -999.00 -999.00 2201.00 2198.00 2191.00 2191.00 2176.00 2168.00
      2161.00 2154.00 2146.00 2139.00 2132.00 2124.00 2117.00 2109.00 2106.00 2102.00 2099.00 2098.00 2096.00 2094.00 2093.00
      2091.00 2089.00 2087.00 2085.00 2083.00 2082.00 2081.00 2079.00 2077.00 2075.00 2074.00 2073.00 2073.00 2072.00 2072.00
      2072.00 2073.00 2086.00 2091.00 2093.00 -999.00
  17  -999.00 -999.00 -999.00 -999.00 -999.00 -999.00 -999.00 -999.00 -999.00 -999.00 -999.00 -999.00 -999.00 -999.00 -999.00
      -999.00 -999.00 -999.00 -999.00 -999.00 -999.00 -999.00 -999.00 -999.00 -999.00 -999.00 -999.00 -999.00 -999.00 -999.00
      -999.00 -999.00 -999.00 -999.00 -999.00 -999.00 -999.00 -999.00 -999.00 2198.00 2205.00 2206.00 2200.00 2185.00 2167.00
      2155.00 2148.00 2140.00 2133.00 2126.00 2117.00 2108.00 2101.00 2098.00 2095.00 2093.00 2091.00 2090.00 2089.00 2088.00
      2087.00 2085.00 2084.00 2081.00 2080.00 2079.00 2077.00 2074.00 2072.00 2071.00 2070.00 2069.00 2069.00 2068.00 2068.00
      2069.00 2069.00 2085.00 2088.00 2088.00 -999.00
  18  -999.00 -999.00 -999.00 -999.00 -999.00 -999.00 -999.00 -999.00 -999.00 -999.00 -999.00 -999.00 -999.00 -999.00 -999.00
      -999.00 -999.00 -999.00 -999.00 -999.00 -999.00 -999.00 -999.00 -999.00 -999.00 -999.00 -999.00 -999.00 -999.00 -999.00
      -999.00 -999.00 -999.00 -999.00 -999.00 -999.00 -999.00 -999.00 -999.00 2213.00 2207.00 2198.00 2186.00 2172.00 2158.00
      2146.00 2139.00 2132.00 2125.00 2117.00 2108.00 2105.00 2101.00 2089.00 2087.00 2086.00 2085.00 2084.00 2083.00 2083.00
      2082.00 2081.00 2080.00 2078.00 2076.00 2075.00 2073.00 2071.00 2070.00 2069.00 2068.00 2067.00 2067.00 2066.00 2066.00
      2067.00 2067.00 2075.00 2080.00 2084.00 -999.00
  19  -999.00 -999.00 -999.00 -999.00 -999.00 -999.00 -999.00 -999.00 -999.00 -999.00 -999.00 -999.00 -999.00 -999.00 -999.00
      -999.00 -999.00 -999.00 -999.00 -999.00 -999.00 -999.00 -999.00 -999.00 -999.00 -999.00 -999.00 -999.00 -999.00 -999.00
      -999.00 -999.00 -999.00 -999.00 2227.00 2217.00 2218.00 2216.00 2208.00 2199.00 2189.00 2178.00 2168.00 2156.00 2142.00
      2136.00 2129.00 2122.00 2114.00 2106.00 2097.00 2087.00 2089.00 2079.00 2078.00 2077.00 2077.00 2077.00 2077.00 2077.00
      2077.00 2077.00 2076.00 2074.00 2073.00 2071.00 2069.00 2068.00 2067.00 2066.00 2065.00 2064.00 2064.00 2064.00 2064.00
      2064.00 2065.00 2066.00 2068.00 2078.00 2080.00
  20  -999.00 -999.00 -999.00 -999.00 -999.00 -999.00 -999.00 -999.00 -999.00 -999.00 -999.00 -999.00 -999.00 -999.00 -999.00
      -999.00 -999.00 -999.00 -999.00 -999.00 -999.00 -999.00 -999.00 -999.00 -999.00 -999.00 -999.00 -999.00 -999.00 -999.00
      -999.00 -999.00 2235.00 2221.00 2205.00 2191.00 2193.00 2193.00 2187.00 2178.00 2169.00 2158.00 2143.00 2137.00 2130.00
      2124.00 2117.00 2110.00 2102.00 2094.00 2085.00 2074.00 2066.00 2067.00 2068.00 2069.00 2069.00 2070.00 2071.00 2072.00
      2072.00 2072.00 2072.00 2071.00 2070.00 2068.00 2066.00 2065.00 2064.00 2063.00 2062.00 2061.00 2061.00 2061.00 2062.00
      2062.00 2063.00 2064.00 2066.00 2073.00 2077.00
  21  -999.00 -999.00 -999.00 -999.00 -999.00 -999.00 -999.00 -999.00 -999.00 -999.00 -999.00 -999.00 -999.00 -999.00 -999.00
      -999.00 -999.00 -999.00 -999.00 -999.00 -999.00 -999.00 -999.00 -999.00 -999.00 -999.00 -999.00 -999.00 -999.00 2249.00
      2238.00 2221.00 2208.00 2195.00 2188.00 2183.00 2177.00 2170.00 2161.00 2157.00 2145.00 2138.00 2131.00 2124.00 2117.00
      2111.00 2104.00 2097.00 2089.00 2081.00 2072.00 2061.00 2055.00 2057.00 2058.00 2060.00 2062.00 2063.00 2065.00 2066.00
      2067.00 2067.00 2068.00 2067.00 2067.00 2066.00 2064.00 2063.00 2061.00 2059.00 2058.00 2058.00 2058.00 2059.00 2059.00
      2060.00 2061.00 2063.00 2065.00 2066.00 2067.00
  22  -999.00 -999.00 -999.00 -999.00 -999.00 -999.00 -999.00 -999.00 -999.00 -999.00 -999.00 -999.00 -999.00 -999.00 -999.00
      -999.00 -999.00 -999.00 -999.00 -999.00 -999.00 -999.00 -999.00 -999.00 -999.00 -999.00 2241.00 2243.00 2238.00 2229.00
      2208.00 2200.00 2194.00 2187.00 2179.00 2171.00 2165.00 2157.00 2149.00 2143.00 2135.00 2127.00 2119.00 2111.00 2103.00
      2096.00 2089.00 2082.00 2073.00 2066.00 2059.00 2051.00 2049.00 2048.00 2048.00 2051.00 2054.00 2056.00 2058.00 2060.00
      2061.00 2062.00 2063.00 2063.00 2063.00 2063.00 2062.00 2061.00 2059.00 2057.00 2055.00 2055.00 2056.00 2057.00 2057.00
      2058.00 2059.00 2061.00 2063.00 2065.00 2066.00
  23  -999.00 -999.00 -999.00 -999.00 -999.00 -999.00 -999.00 -999.00 -999.00 -999.00 -999.00 -999.00 -999.00 -999.00 -999.00
      -999.00 -999.00 -999.00 -999.00 -999.00 -999.00 -999.00 -999.00 -999.00 2284.00 2267.00 2243.00 2224.00 2215.00 2206.00
      2198.00 2191.00 2184.00 2176.00 2168.00 2160.00 2155.00 2148.00 2141.00 2133.00 2125.00 2116.00 2107.00 2097.00 2086.00
      2079.00 2073.00 2066.00 2059.00 2055.00 2050.00 2045.00 2042.00 2040.00 2040.00 2043.00 2046.00 2049.00 2051.00 2054.00
      2056.00 2057.00 2058.00 2059.00 2059.00 2059.00 2059.00 2058.00 2057.00 2055.00 2053.00 2053.00 2054.00 2055.00 2057.00
      2057.00 2058.00 2060.00 2063.00 2064.00 2065.00
  24  -999.00 -999.00 -999.00 -999.00 -999.00 -999.00 -999.00 -999.00 -999.00 -999.00 -999.00 -999.00 -999.00 -999.00 -999.00
      -999.00 -999.00 -999.00 -999.00 -999.00 -999.00 -999.00 2295.00 2281.00 2265.00 2245.00 2230.00 2214.00 2203.00 2193.00
      2185.00 2178.00 2172.00 2164.00 2157.00 2152.00 2147.00 2140.00 2132.00 2123.00 2114.00 2104.00 2094.00 2082.00 2071.00
      2066.00 2061.00 2057.00 2053.00 2049.00 2045.00 2039.00 2035.00 2035.00 2034.00 2034.00 2038.00 2041.00 2045.00 2047.00
      2050.00 2052.00 2053.00 2054.00 2055.00 2055.00 2055.00 2054.00 2053.00 2052.00 2050.00 2051.00 2052.00 2053.00 2055.00
      2057.00 2058.00 2060.00 2062.00 2063.00 2072.00
  25  -999.00 -999.00 -999.00 -999.00 -999.00 -999.00 -999.00 -999.00 -999.00 -999.00 -999.00 -999.00 -999.00 -999.00 -999.00
      -999.00 -999.00 -999.00 -999.00 -999.00 2336.00 2303.00 2287.00 2271.00 2253.00 2237.00 2219.00 2202.00 2190.00 2181.00
      2174.00 2167.00 2161.00 2154.00 2149.00 2144.00 2137.00 2130.00 2122.00 2113.00 2103.00 2093.00 2082.00 2071.00 2063.00
      2059.00 2055.00 2051.00 2048.00 2044.00 2040.00 2034.00 2030.00 2029.00 2029.00 2027.00 2030.00 2034.00 2038.00 2041.00
      2043.00 2046.00 2048.00 2049.00 2050.00 2051.00 2051.00 2051.00 2050.00 2049.00 2047.00 2048.00 2049.00 2050.00 2053.00
      2055.00 2058.00 2060.00 2061.00 2063.00 -999.00
  26  -999.00 -999.00 -999.00 -999.00 -999.00 -999.00 -999.00 -999.00 -999.00 -999.00 -999.00 -999.00 -999.00 -999.00 -999.00
      -999.00 -999.00 -999.00 2345.00 2338.00 2314.00 2299.00 2281.00 2261.00 2242.00 2226.00 2208.00 2193.00 2180.00 2171.00
      2164.00 2158.00 2152.00 2146.00 2140.00 2134.00 2128.00 2120.00 2112.00 2102.00 2092.00 2080.00 2068.00 2059.00 2055.00
      2051.00 2048.00 2045.00 2042.00 2039.00 2035.00 2031.00 2027.00 2025.00 2024.00 2022.00 2024.00 2028.00 2031.00 2034.00
      2037.00 2039.00 2042.00 2043.00 2045.00 2046.00 2046.00 2047.00 2047.00 2047.00 2046.00 2046.00 2047.00 2047.00 2049.00
      2053.00 2057.00 2059.00 2061.00 -999.00 -999.00
  27  -999.00 -999.00 -999.00 -999.00 -999.00 -999.00 -999.00 -999.00 -999.00 -999.00 -999.00 -999.00 -999.00 -999.00 -999.00
      -999.00 -999.00 2333.00 2329.00 2320.00 2307.00 2288.00 2268.00 2249.00 2231.00 2216.00 2200.00 2185.00 2170.00 2160.00
      2153.00 2147.00 2141.00 2135.00 2130.00 2124.00 2118.00 2110.00 2102.00 2091.00 2079.00 2065.00 2056.00 2050.00 2047.00
      2044.00 2042.00 2039.00 2037.00 2034.00 2031.00 2027.00 2023.00 2020.00 2027.00 2018.00 2018.00 2021.00 2032.00 2027.00
      2030.00 2033.00 2035.00 2038.00 2039.00 2041.00 2042.00 2043.00 2043.00 2044.00 2044.00 2044.00 2044.00 2044.00 2046.00
      2047.00 -999.00 -999.00 -999.00 -999.00 -999.00
  28  -999.00 -999.00 -999.00 -999.00 -999.00 -999.00 -999.00 -999.00 -999.00 -999.00 -999.00 -999.00 -999.00 -999.00 -999.00
      -999.00 2340.00 2330.00 2321.00 2310.00 2296.00 2277.00 2258.00 2238.00 2222.00 2207.00 2193.00 2179.00 2164.00 2150.00
      2142.00 2136.00 2129.00 2123.00 2118.00 2114.00 2107.00 2099.00 2090.00 2080.00 2066.00 2056.00 2050.00 2043.00 2039.00
      2036.00 2034.00 2033.00 2032.00 2034.00 2026.00 2022.00 2018.00 2034.00 2025.00 2013.00 2012.00 2014.00 2027.00 2019.00
      2022.00 2026.00 2029.00 2031.00 2034.00 2035.00 2037.00 2038.00 2039.00 2040.00 2041.00 2042.00 2042.00 2042.00 2042.00
      2043.00 -999.00 -999.00 -999.00 -999.00 -999.00
  29  -999.00 -999.00 -999.00 -999.00 -999.00 -999.00 -999.00 -999.00 -999.00 -999.00 -999.00 2432.00 2407.00 2393.00 2379.00
      2362.00 2341.00 2321.00 2309.00 2298.00 2285.00 2267.00 2246.00 2227.00 2211.00 2197.00 2184.00 2171.00 2156.00 2142.00
      2136.00 2129.00 2122.00 2115.00 2110.00 2104.00 2095.00 2087.00 2079.00 2068.00 2058.00 2051.00 2044.00 2038.00 2035.00
      2031.00 2029.00 2027.00 2026.00 2024.00 2022.00 2018.00 2032.00 2028.00 2021.00 2008.00 2007.00 2007.00 2024.00 2034.00
      2015.00 2019.00 2022.00 2025.00 2027.00 2030.00 2031.00 2033.00 2035.00 2036.00 2037.00 2038.00 2039.00 2038.00 2038.00
      2038.00 -999.00 -999.00 -999.00 -999.00 -999.00
  30  -999.00 -999.00 -999.00 -999.00 -999.00 -999.00 -999.00 -999.00 -999.00 -999.00 2475.00 2429.00 2407.00 2395.00 2380.00
      2361.00 2334.00 2310.00 2302.00 2292.00 2278.00 2260.00 2238.00 2219.00 2205.00 2190.00 2177.00 2166.00 2155.00 2145.00
      2136.00 2128.00 2120.00 2112.00 2105.00 2095.00 2087.00 2080.00 2072.00 2064.00 2056.00 2049.00 2044.00 2039.00 2035.00
      2031.00 2027.00 2023.00 2022.00 2020.00 2023.00 2020.00 2026.00 2022.00 2010.00 2004.00 2002.00 2010.00 2022.00 2026.00
      2030.00 2012.00 2015.00 2019.00 2021.00 2023.00 2026.00 2028.00 2029.00 2031.00 2033.00 2034.00 2034.00 2034.00 2033.00
      2034.00 -999.00 -999.00 -999.00 -999.00 -999.00
  31  -999.00 -999.00 -999.00 -999.00 -999.00 -999.00 -999.00 -999.00 -999.00 2509.00 2474.00 2431.00 2409.00 2396.00 2381.00
      2362.00 2335.00 2310.00 2302.00 2292.00 2278.00 2260.00 2238.00 2219.00 2204.00 2189.00 2176.00 2165.00 2155.00 2145.00
      2136.00 2127.00 2118.00 2110.00 2101.00 2093.00 2086.00 2078.00 2072.00 2064.00 2057.00 2050.00 2045.00 2040.00 2035.00
      2031.00 2026.00 2022.00 2019.00 2016.00 2012.00 2008.00 2018.00 2018.00 2001.00 2000.00 1998.00 2006.00 2016.00 2017.00
      2021.00 2026.00 2031.00 2012.00 2015.00 2031.00 2032.00 2022.00 2024.00 2026.00 2027.00 2029.00 2029.00 2028.00 2028.00
      2029.00 -999.00 -999.00 -999.00 -999.00 -999.00
  32  -999.00 -999.00 -999.00 -999.00 -999.00 -999.00 -999.00 -999.00 2520.00 2508.00 2484.00 2445.00 2416.00 2396.00 2381.00
      2365.00 2344.00 2323.00 2311.00 2299.00 2284.00 2267.00 2245.00 2225.00 2210.00 2196.00 2182.00 2169.00 2154.00 2142.00
      2135.00 2128.00 2120.00 2112.00 2102.00 2094.00 2086.00 2080.00 2073.00 2067.00 2059.00 2054.00 2048.00 2042.00 2036.00
      2031.00 2025.00 2021.00 2017.00 2013.00 2008.00 2005.00 2001.00 1999.00 1998.00 1996.00 1994.00 1993.00 2003.00 2005.00
      2012.00 2018.00 2025.00 2030.00 2029.00 2024.00 2027.00 2015.00 2017.00 2019.00 2021.00 2023.00 2029.00 2031.00 2023.00
      2024.00 -999.00 -999.00 -999.00 -999.00 -999.00
  33  -999.00 -999.00 -999.00 -999.00 -999.00 -999.00 -999.00 -999.00 2519.00 2516.00 2482.00 2446.00 2415.00 2395.00 2380.00
      2365.00 2349.00 2333.00 2320.00 2308.00 2293.00 2275.00 2253.00 2234.00 2219.00 2205.00 2192.00 2177.00 2158.00 2143.00
      2138.00 2132.00 2124.00 2114.00 2104.00 2094.00 2086.00 2081.00 2075.00 2069.00 2064.00 2059.00 2052.00 2046.00 2043.00
      2031.00 2025.00 2020.00 2016.00 2013.00 2009.00 2003.00 1998.00 1996.00 1994.00 1992.00 1990.00 1989.00 1988.00 1995.00
      2001.00 2009.00 2016.00 2020.00 2019.00 2016.00 2022.00 2032.00 2009.00 2011.00 2012.00 2015.00 2025.00 2024.00 2032.00
      2034.00 -999.00 -999.00 -999.00 -999.00 -999.00
  34  -999.00 -999.00 -999.00 -999.00 -999.00 -999.00 2535.00 2526.00 2511.00 2503.00 2473.00 2436.00 2408.00 2392.00 2376.00
      2363.00 2349.00 2336.00 2332.00 2321.00 2297.00 2280.00 2259.00 2240.00 2224.00 2211.00 2200.00 2186.00 2167.00 2150.00
      2142.00 2136.00 2127.00 2117.00 2107.00 2096.00 2087.00 2083.00 2078.00 2072.00 2068.00 2064.00 2057.00 2050.00 2042.00
      2033.00 2026.00 2028.00 2017.00 2012.00 2007.00 2001.00 1996.00 1992.00 1991.00 1988.00 1987.00 1985.00 1984.00 1983.00
      1985.00 1997.00 2003.00 2005.00 2005.00 2007.00 2017.00 2027.00 2034.00 2004.00 2021.00 2020.00 2021.00 2013.00 2024.00
      2029.00 -999.00 -999.00 -999.00 -999.00 -999.00
  35  -999.00 -999.00 -999.00 -999.00 -999.00 2541.00 2534.00 2523.00 2506.00 2489.00 2456.00 2421.00 2402.00 2384.00 2366.00
      2356.00 2345.00 2342.00 2337.00 2332.00 2313.00 2282.00 2262.00 2244.00 2226.00 2211.00 2205.00 2193.00 2175.00 2160.00
      2150.00 2140.00 2130.00 2119.00 2109.00 2097.00 2090.00 2085.00 2080.00 2075.00 2071.00 2068.00 2061.00 2053.00 2045.00
      2036.00 2029.00 2025.00 2019.00 2021.00 2007.00 2001.00 1996.00 1992.00 1988.00 1985.00 1984.00 1983.00 1981.00 1981.00
      1980.00 1980.00 1988.00 1991.00 1992.00 1999.00 2009.00 2019.00 2021.00 2020.00 2018.00 2015.00 2014.00 2003.00 2015.00
      2023.00 -999.00 -999.00 -999.00 -999.00 -999.00
  36  -999.00 -999.00 -999.00 -999.00 -999.00 2537.00 2530.00 2517.00 2495.00 2469.00 2436.00 2414.00 2393.00 2370.00 2355.00
      2349.00 2342.00 2334.00 2325.00 2324.00 2317.00 2295.00 2264.00 2247.00 2231.00 2216.00 2205.00 2192.00 2179.00 2167.00
      2155.00 2143.00 2132.00 2122.00 2111.00 2100.00 2092.00 2088.00 2083.00 2078.00 2074.00 2071.00 2065.00 2057.00 2049.00
      2040.00 2034.00 2030.00 2032.00 2028.00 2012.00 1999.00 1995.00 1992.00 1988.00 1985.00 1982.00 1980.00 1978.00 1978.00
      1977.00 1976.00 1975.00 1975.00 1984.00 1993.00 2001.00 2008.00 2013.00 2014.00 2016.00 2007.00 2002.00 2004.00 2015.00
      2021.00 -999.00 -999.00 -999.00 -999.00 -999.00
  37  -999.00 -999.00 -999.00 -999.00 -999.00 2536.00 2523.00 2507.00 2480.00 2450.00 2428.00 2406.00 2381.00 2361.00 2355.00
      2349.00 2342.00 2334.00 2326.00 2314.00 2300.00 2291.00 2264.00 2252.00 2239.00 2223.00 2207.00 2194.00 2181.00 2168.00
      2157.00 2145.00 2134.00 2124.00 2113.00 2102.00 2095.00 2091.00 2086.00 2082.00 2078.00 2074.00 2068.00 2061.00 2053.00
      2044.00 2039.00 2036.00 2030.00 2021.00 2023.00 2007.00 1995.00 1992.00 1989.00 1985.00 1982.00 1980.00 1977.00 1975.00
      1974.00 1973.00 1972.00 1972.00 1979.00 1986.00 1991.00 1995.00 1999.00 1998.00 1996.00 1992.00 1990.00 2002.00 2012.00
      2015.00 -999.00 -999.00 -999.00 -999.00 -999.00
  38  -999.00 -999.00 -999.00 -999.00 -999.00 2536.00 2519.00 2495.00 2467.00 2441.00 2420.00 2398.00 2376.00 2362.00 2356.00
      2350.00 2343.00 2336.00 2327.00 2315.00 2302.00 2287.00 2270.00 2257.00 2243.00 2226.00 2210.00 2196.00 2183.00 2170.00
      2158.00 2146.00 2136.00 2126.00 2116.00 2105.00 2098.00 2094.00 2090.00 2087.00 2084.00 2078.00 2072.00 2065.00 2057.00
      2049.00 2045.00 2043.00 2037.00 2027.00 2032.00 2011.00 1997.00 1993.00 1989.00 1985.00 1983.00 1980.00 1977.00 1975.00
      1972.00 1971.00 1971.00 1970.00 1969.00 1978.00 1981.00 1981.00 1984.00 1983.00 1979.00 1974.00 1974.00 1990.00 1995.00
      2005.00 2013.00 -999.00 -999.00 -999.00 -999.00
  39  -999.00 -999.00 -999.00 -999.00 -999.00 2538.00 2521.00 2490.00 2453.00 2432.00 2410.00 2388.00 2374.00 2366.00 2358.00
      2352.00 2346.00 2338.00 2328.00 2316.00 2303.00 2288.00 2281.00 2270.00 2250.00 2228.00 2212.00 2198.00 2184.00 2171.00
      2159.00 2148.00 2137.00 2127.00 2118.00 2108.00 2102.00 2098.00 2095.00 2093.00 2089.00 2083.00 2076.00 2069.00 2061.00
      2054.00 2050.00 2051.00 2045.00 2034.00 2022.00 2019.00 2007.00 1996.00 1991.00 1987.00 1984.00 1981.00 1978.00 1975.00
      1973.00 1972.00 1970.00 1969.00 1968.00 1966.00 1965.00 1964.00 1965.00 1965.00 1966.00 1967.00 1967.00 1977.00 1980.00
      1990.00 2010.00 -999.00 -999.00 -999.00 -999.00
  40  -999.00 -999.00 -999.00 -999.00 2542.00 2532.00 2507.00 2467.00 2446.00 2424.00 2400.00 2382.00 2377.00 2370.00 2364.00
      2358.00 2351.00 2341.00 2330.00 2322.00 2319.00 2309.00 2293.00 2276.00 2260.00 2242.00 2223.00 2199.00 2186.00 2173.00
      2160.00 2148.00 2137.00 2128.00 2120.00 2111.00 2105.00 2102.00 2100.00 2097.00 2093.00 2087.00 2080.00 2080.00 2066.00
      2060.00 2057.00 2057.00 2052.00 2041.00 2030.00 2029.00 2011.00 2005.00 1999.00 1999.00 1994.00 1994.00 1990.00 1984.00
      1981.00 1973.00 1971.00 1970.00 1967.00 1965.00 1964.00 1962.00 1962.00 1961.00 1960.00 1960.00 1960.00 1966.00 1970.00
      1985.00 1995.00 1995.00 -999.00 -999.00 -999.00
  41  -999.00 -999.00 -999.00 -999.00 2542.00 2520.00 2483.00 2461.00 2438.00 2415.00 2398.00 2386.00 2381.00 2373.00 2366.00
      2361.00 2357.00 2349.00 2337.00 2336.00 2332.00 2315.00 2293.00 2276.00 2259.00 2240.00 2217.00 2203.00 2189.00 2175.00
      2162.00 2147.00 2136.00 2129.00 2121.00 2114.00 2108.00 2106.00 2105.00 2103.00 2106.00 2094.00 2088.00 2082.00 2083.00
      2068.00 2065.00 2063.00 2059.00 2050.00 2038.00 2028.00 2028.00 2022.00 2019.00 2017.00 2012.00 2011.00 2005.00 2000.00
      1988.00 1981.00 1973.00 1972.00 1969.00 1966.00 1964.00 1962.00 1960.00 1957.00 1955.00 1954.00 1953.00 1952.00 1962.00
      1972.00 1975.00 1975.00 1970.00 -999.00 -999.00
  42  -999.00 -999.00 -999.00 2555.00 2537.00 2502.00 2479.00 2456.00 2427.00 2406.00 2401.00 2393.00 2387.00 2383.00 2378.00
      2372.00 2367.00 2360.00 2348.00 2334.00 2318.00 2297.00 2284.00 2268.00 2254.00 2238.00 2222.00 2207.00 2193.00 2179.00
      2164.00 2147.00 2136.00 2130.00 2124.00 2117.00 2112.00 2110.00 2110.00 2109.00 2117.00 2110.00 2097.00 2091.00 2085.00
      2077.00 2073.00 2070.00 2067.00 2060.00 2052.00 2036.00 2029.00 2025.00 2019.00 2012.00 2031.00 2027.00 2022.00 2015.00
      2001.00 1987.00 1981.00 1986.00 1985.00 1985.00 1970.00 1962.00 1958.00 1955.00 1952.00 1949.00 1946.00 1946.00 1944.00
      1941.00 1945.00 1945.00 1945.00 -999.00 -999.00
  43  -999.00 -999.00 -999.00 2559.00 2526.00 2501.00 2480.00 2455.00 2427.00 2408.00 2405.00 2402.00 2399.00 2398.00 2395.00
      2389.00 2382.00 2371.00 2358.00 2343.00 2326.00 2303.00 2284.00 2271.00 2258.00 2242.00 2226.00 2211.00 2197.00 2182.00
      2166.00 2149.00 2137.00 2132.00 2126.00 2120.00 2116.00 2114.00 2114.00 2114.00 2113.00 2110.00 2105.00 2099.00 2093.00
      2085.00 2080.00 2078.00 2077.00 2073.00 2063.00 2059.00 2044.00 2039.00 2031.00 2028.00 2018.00 2004.00 2027.00 2014.00
      2001.00 1990.00 1988.00 1997.00 1995.00 1995.00 1985.00 1975.00 1975.00 1963.00 1951.00 1947.00 1945.00 1943.00 1941.00
      1939.00 1937.00 1934.00 1930.00 1900.00 -999.00
  44  -999.00 -999.00 2576.00 2548.00 2522.00 2506.00 2483.00 2452.00 2427.00 2417.00 2412.00 2411.00 2412.00 2412.00 2410.00
      2404.00 2402.00 2382.00 2367.00 2351.00 2333.00 2310.00 2288.00 2275.00 2261.00 2245.00 2229.00 2215.00 2200.00 2185.00
      2169.00 2151.00 2139.00 2134.00 2129.00 2124.00 2120.00 2119.00 2118.00 2119.00 2118.00 2116.00 2111.00 2106.00 2100.00
      2092.00 2087.00 2087.00 2087.00 2085.00 2081.00 2080.00 2072.00 2065.00 2056.00 2045.00 2032.00 2018.00 2027.00 2015.00
      2006.00 1995.00 1996.00 2006.00 2006.00 2000.00 1995.00 1985.00 1985.00 1971.00 1952.00 1948.00 1946.00 1943.00 1940.00
      1938.00 1936.00 1934.00 1930.00 1900.00 -999.00
  45  -999.00 2596.00 2552.00 2539.00 2527.00 2511.00 2490.00 2458.00 2433.00 2424.00 2419.00 2417.00 2424.00 2426.00 2423.00
      2424.00 2422.00 2406.00 2376.00 2359.00 2342.00 2321.00 2296.00 2277.00 2264.00 2248.00 2232.00 2217.00 2202.00 2187.00
      2171.00 2153.00 2142.00 2137.00 2132.00 2127.00 2124.00 2123.00 2122.00 2123.00 2122.00 2121.00 2117.00 2112.00 2106.00
      2098.00 2094.00 2096.00 2097.00 2096.00 2094.00 2100.00 2099.00 2092.00 2080.00 2063.00 2042.00 2019.00 2030.00 2017.00
      2009.00 2001.00 2003.00 2010.00 2020.00 2010.00 2005.00 1995.00 1992.00 1973.00 1960.00 1949.00 1947.00 1945.00 1942.00
      1939.00 1937.00 1934.00 1930.00 1900.00 -999.00
  46  -999.00 2589.00 2553.00 2542.00 2531.00 2517.00 2498.00 2469.00 2444.00 2441.00 2437.00 2437.00 2441.00 2441.00 2437.00
      2438.00 2441.00 2428.00 2396.00 2367.00 2349.00 2330.00 2305.00 2281.00 2267.00 2251.00 2234.00 2219.00 2204.00 2189.00
      2172.00 2155.00 2144.00 2139.00 2134.00 2130.00 2128.00 2126.00 2125.00 2124.00 2125.00 2125.00 2123.00 2119.00 2112.00
      2105.00 2099.00 2103.00 2105.00 2105.00 2111.00 2118.00 2122.00 2116.00 2098.00 2078.00 2051.00 2026.00 2034.00 2022.00
      2015.00 2006.00 2007.00 2013.00 2021.00 2020.00 2010.00 2007.00 1995.00 1972.00 1958.00 1953.00 1949.00 1947.00 1944.00
      1941.00 1940.00 1937.00 -999.00 -999.00 -999.00
  47  2614.00 2588.00 2555.00 2546.00 2535.00 2523.00 2508.00 2488.00 2467.00 2464.00 2461.00 2459.00 2457.00 2455.00 2449.00
      2451.00 2454.00 2438.00 2407.00 2376.00 2357.00 2339.00 2316.00 2290.00 2274.00 2261.00 2236.00 2220.00 2205.00 2190.00
      2174.00 2157.00 2146.00 2141.00 2136.00 2133.00 2131.00 2129.00 2128.00 2126.00 2128.00 2129.00 2129.00 2125.00 2120.00
      2114.00 2108.00 2109.00 2111.00 2112.00 2123.00 2137.00 2140.00 2129.00 2112.00 2089.00 2057.00 2033.00 2022.00 2028.00
      2022.00 2013.00 2014.00 2017.00 2022.00 2020.00 2010.00 2007.00 1994.00 1977.00 1962.00 1957.00 1954.00 1950.00 1948.00
      1944.00 1942.00 1940.00 -999.00 -999.00 -999.00
  48  -999.00 2596.00 2559.00 2550.00 2541.00 2530.00 2518.00 2504.00 2489.00 2482.00 2477.00 2474.00 2471.00 2466.00 2460.00
      2465.00 2465.00 2449.00 2426.00 2394.00 2365.00 2347.00 2326.00 2300.00 2280.00 2265.00 2238.00 2221.00 2206.00 2191.00
      2175.00 2158.00 2148.00 2143.00 2138.00 2135.00 2133.00 2132.00 2130.00 2130.00 2132.00 2134.00 2134.00 2132.00 2132.00
      2121.00 2116.00 2114.00 2115.00 2117.00 2134.00 2150.00 2157.00 2142.00 2124.00 2100.00 2066.00 2040.00 2029.00 2030.00
      2024.00 2021.00 2022.00 2023.00 2027.00 2020.00 2011.00 2003.00 1993.00 1981.00 1967.00 1961.00 1958.00 1955.00 1959.00
      1955.00 1946.00 -999.00 -999.00 -999.00 -999.00
  49  -999.00 -999.00 2583.00 2558.00 2550.00 2542.00 2532.00 2521.00 2511.00 2503.00 2497.00 2493.00 2489.00 2482.00 2474.00
      2478.00 2478.00 2461.00 2440.00 2410.00 2382.00 2355.00 2336.00 2312.00 2287.00 2268.00 2247.00 2222.00 2206.00 2191.00
      2175.00 2159.00 2149.00 2145.00 2140.00 2137.00 2136.00 2134.00 2133.00 2133.00 2136.00 2138.00 2139.00 2138.00 2139.00
      2128.00 2121.00 2118.00 2119.00 2120.00 2137.00 2161.00 2172.00 2159.00 2134.00 2110.00 2077.00 2048.00 2036.00 2034.00
      2029.00 2030.00 2031.00 2029.00 2026.00 2018.00 2008.00 2000.00 1986.00 1978.00 1972.00 1967.00 1963.00 1961.00 1973.00
      1969.00 -999.00 -999.00 -999.00 -999.00 -999.00
  50  -999.00 -999.00 -999.00 2587.00 2568.00 2560.00 2556.00 2535.00 2547.00 2522.00 2517.00 2512.00 2506.00 2495.00 2486.00
      2491.00 2488.00 2471.00 2448.00 2418.00 2391.00 2362.00 2343.00 2322.00 2299.00 2274.00 2252.00 2222.00 2207.00 2191.00
      2174.00 2160.00 2151.00 2147.00 2143.00 2140.00 2138.00 2136.00 2135.00 2136.00 2139.00 2142.00 2144.00 2144.00 2146.00
      2140.00 2126.00 2121.00 2123.00 2124.00 2131.00 2164.00 2179.00 2170.00 2146.00 2117.00 2085.00 2055.00 2044.00 2035.00
      2031.00 2027.00 2023.00 2021.00 2025.00 2017.00 2005.00 1998.00 1990.00 1982.00 1976.00 1973.00 1970.00 1969.00 1981.00
      1986.00 -999.00 -999.00 -999.00 -999.00 -999.00
  51  -999.00 -999.00 -999.00 -999.00 -999.00 -999.00 -999.00 -999.00 2575.00 2559.00 2539.00 2523.00 2520.00 -999.00 -999.00
      2503.00 2500.00 2481.00 2452.00 2421.00 2396.00 2373.00 2350.00 2329.00 2307.00 2283.00 2257.00 2232.00 2211.00 2189.00
      2170.00 2159.00 2153.00 2149.00 2145.00 2142.00 2141.00 2139.00 2138.00 2140.00 2143.00 2149.00 2153.00 2162.00 2164.00
      2157.00 2135.00 2128.00 2128.00 2129.00 2136.00 2164.00 2185.00 2180.00 2157.00 2125.00 2092.00 2060.00 2052.00 2042.00
      2039.00 2034.00 2030.00 2027.00 2028.00 2016.00 2009.00 2002.00 1994.00 1986.00 1980.00 1978.00 1977.00 1976.00 1985.00
      1993.00 -999.00 -999.00 -999.00 -999.00 -999.00
  52  -999.00 -999.00 -999.00 -999.00 -999.00 -999.00 -999.00 -999.00 -999.00 -999.00 -999.00 -999.00 -999.00 -999.00 -999.00
      -999.00 2502.00 2483.00 2453.00 2425.00 2398.00 2372.00 2354.00 2334.00 2312.00 2289.00 2264.00 2239.00 2215.00 2189.00
      2168.00 2159.00 2155.00 2151.00 2147.00 2145.00 2144.00 2143.00 2142.00 2144.00 2149.00 2157.00 2174.00 2185.00 2189.00
      2176.00 2145.00 2136.00 2134.00 2134.00 2141.00 2165.00 2186.00 2186.00 2163.00 2131.00 2099.00 2073.00 2056.00 2047.00
      2044.00 2041.00 2036.00 2033.00 2028.00 2021.00 2014.00 2006.00 1999.00 1991.00 1985.00 1983.00 1983.00 1982.00 1992.00
      2002.00 -999.00 -999.00 -999.00 -999.00 -999.00
  53  -999.00 -999.00 -999.00 -999.00 -999.00 -999.00 -999.00 -999.00 -999.00 -999.00 -999.00 -999.00 -999.00 -999.00 -999.00
      -999.00 -999.00 2479.00 2451.00 2424.00 2397.00 2374.00 2357.00 2338.00 2315.00 2291.00 2268.00 2243.00 2217.00 2190.00
      2168.00 2160.00 2156.00 2153.00 2150.00 2148.00 2147.00 2146.00 2147.00 2149.00 2155.00 2178.00 2195.00 2206.00 2210.00
      2190.00 2155.00 2143.00 2139.00 2140.00 2147.00 2167.00 2187.00 2190.00 2163.00 2132.00 2103.00 2078.00 2063.00 2052.00
      2048.00 2045.00 2042.00 2038.00 2033.00 2025.00 2018.00 2011.00 2003.00 1996.00 1991.00 1989.00 1988.00 1995.00 2001.00
      2008.00 -999.00 -999.00 -999.00 -999.00 -999.00
  54  -999.00 -999.00 -999.00 -999.00 -999.00 -999.00 -999.00 -999.00 -999.00 -999.00 -999.00 -999.00 -999.00 -999.00 -999.00
      -999.00 -999.00 -999.00 2448.00 2422.00 2391.00 2374.00 2357.00 2346.00 2316.00 2293.00 2269.00 2245.00 2219.00 2191.00
      2169.00 2161.00 2158.00 2155.00 2152.00 2150.00 2149.00 2149.00 2150.00 2153.00 2160.00 2184.00 2203.00 2218.00 2223.00
      2197.00 2164.00 2150.00 2145.00 2145.00 2152.00 2169.00 2189.00 2193.00 2165.00 2129.00 2108.00 2087.00 2071.00 2058.00
      2053.00 2051.00 2047.00 2043.00 2037.00 2029.00 2022.00 2015.00 2007.00 2008.00 1996.00 1994.00 1999.00 2005.00 2008.00
      2014.00 -999.00 -999.00 -999.00 -999.00 -999.00
  55  -999.00 -999.00 -999.00 -999.00 -999.00 -999.00 -999.00 -999.00 -999.00 -999.00 -999.00 -999.00 -999.00 -999.00 -999.00
      -999.00 -999.00 -999.00 2446.00 2417.00 2391.00 2370.00 2355.00 2338.00 2317.00 2293.00 2269.00 2245.00 2220.00 2191.00
      2169.00 2162.00 2159.00 2156.00 2154.00 2152.00 2152.00 2151.00 2153.00 2157.00 2166.00 2178.00 2201.00 2219.00 2228.00
      2209.00 2178.00 2157.00 2150.00 2151.00 2159.00 2168.00 2194.00 2198.00 2165.00 2138.00 2118.00 2097.00 2079.00 2065.00
      2059.00 2056.00 2053.00 2048.00 2041.00 2034.00 2031.00 2025.00 2024.00 2020.00 2006.00 1999.00 2008.00 2013.00 2017.00
      2022.00 -999.00 -999.00 -999.00 -999.00 -999.00
  56  -999.00 -999.00 -999.00 -999.00 -999.00 -999.00 -999.00 -999.00 -999.00 -999.00 -999.00 -999.00 -999.00 -999.00 -999.00
      -999.00 -999.00 -999.00 -999.00 -999.00 -999.00 2362.00 2351.00 2336.00 2316.00 2292.00 2268.00 2245.00 2220.00 2192.00
      2170.00 2163.00 2160.00 2157.00 2155.00 2154.00 2153.00 2153.00 2155.00 2162.00 2171.00 2184.00 2202.00 2221.00 2234.00
      2229.00 2195.00 2173.00 2159.00 2159.00 2165.00 2177.00 2201.00 2201.00 2164.00 2146.00 2128.00 2109.00 2089.00 2073.00
      2066.00 2062.00 2058.00 2054.00 2046.00 2037.00 2031.00 2024.00 2016.00 2031.00 2017.00 2004.00 2018.00 2026.00 2029.00
      2005.00 -999.00 -999.00 -999.00 -999.00 -999.00
  57  -999.00 -999.00 -999.00 -999.00 -999.00 -999.00 -999.00 -999.00 -999.00 -999.00 -999.00 -999.00 -999.00 -999.00 -999.00
      -999.00 -999.00 -999.00 -999.00 -999.00 -999.00 -999.00 2344.00 2331.00 2313.00 2291.00 2267.00 2244.00 2220.00 2193.00
      2171.00 2163.00 2160.00 2158.00 2157.00 2155.00 2155.00 2155.00 2158.00 2165.00 2175.00 2189.00 2208.00 2228.00 2242.00
      2241.00 2214.00 2189.00 2170.00 2171.00 2174.00 2185.00 2209.00 2207.00 2175.00 2157.00 2138.00 2121.00 2099.00 2082.00
      2081.00 2074.00 2066.00 2062.00 2054.00 2043.00 2034.00 2029.00 2021.00 2015.00 2031.00 2018.00 2029.00 2014.00 2016.00
      2022.00 -999.00 -999.00 -999.00 -999.00 -999.00
  58  -999.00 -999.00 -999.00 -999.00 -999.00 -999.00 -999.00 -999.00 -999.00 -999.00 -999.00 -999.00 -999.00 -999.00 -999.00
      -999.00 -999.00 -999.00 -999.00 -999.00 -999.00 -999.00 -999.00 2323.00 2310.00 2290.00 2267.00 2244.00 2221.00 2195.00
      2174.00 2163.00 2161.00 2159.00 2158.00 2157.00 2156.00 2157.00 2160.00 2168.00 2178.00 2193.00 2214.00 2237.00 2255.00
      2251.00 2230.00 2204.00 2187.00 2181.00 2184.00 2190.00 2219.00 2213.00 2187.00 2171.00 2151.00 2133.00 2112.00 2101.00
      2096.00 2086.00 2074.00 2070.00 2064.00 2054.00 2042.00 2035.00 2029.00 2032.00 2019.00 2031.00 2014.00 2020.00 2026.00
      2029.00 -999.00 -999.00 -999.00 -999.00 -999.00
  59  -999.00 -999.00 -999.00 -999.00 -999.00 -999.00 -999.00 -999.00 -999.00 -999.00 -999.00 -999.00 -999.00 -999.00 -999.00
      -999.00 -999.00 -999.00 -999.00 -999.00 -999.00 -999.00 -999.00 -999.00 -999.00 -999.00 -999.00 -999.00 -999.00 2185.00
      2172.00 2163.00 2161.00 2159.00 2158.00 2158.00 2157.00 2158.00 2161.00 2170.00 2182.00 2197.00 2214.00 2242.00 2265.00
      2265.00 2242.00 2217.00 2201.00 2189.00 2192.00 2201.00 2225.00 2218.00 2198.00 2184.00 2166.00 2147.00 2127.00 2116.00
      2111.00 2100.00 2082.00 2077.00 2072.00 2063.00 2052.00 2044.00 2048.00 2048.00 2027.00 2024.00 2021.00 2026.00 2032.00
      2034.00 -999.00 -999.00 -999.00 -999.00 -999.00
  60  -999.00 -999.00 -999.00 -999.00 -999.00 -999.00 -999.00 -999.00 -999.00 -999.00 -999.00 -999.00 -999.00 -999.00 -999.00
      -999.00 -999.00 -999.00 -999.00 -999.00 -999.00 -999.00 -999.00 -999.00 -999.00 -999.00 -999.00 -999.00 -999.00 -999.00
      -999.00 2162.00 2161.00 2160.00 2159.00 2158.00 2158.00 2159.00 2164.00 2174.00 2185.00 2200.00 2217.00 2244.00 2272.00
      2277.00 2260.00 2231.00 2219.00 2210.00 2210.00 2217.00 2226.00 2223.00 2208.00 2195.00 2179.00 2160.00 2140.00 2133.00
      2125.00 2113.00 2094.00 2087.00 2081.00 2072.00 2062.00 2053.00 2057.00 2057.00 2036.00 2033.00 2031.00 2038.00 2039.00
      2040.00 -999.00 -999.00 -999.00 -999.00 -999.00
  61  -999.00 -999.00 -999.00 -999.00 -999.00 -999.00 -999.00 -999.00 -999.00 -999.00 -999.00 -999.00 -999.00 -999.00 -999.00
      -999.00 -999.00 -999.00 -999.00 -999.00 -999.00 -999.00 -999.00 -999.00 -999.00 -999.00 -999.00 -999.00 -999.00 -999.00
      -999.00 -999.00 2161.00 2160.00 2160.00 2159.00 2159.00 2160.00 2166.00 2176.00 2186.00 2202.00 2219.00 2244.00 2272.00
      2285.00 2274.00 2241.00 2236.00 2233.00 2232.00 2234.00 2233.00 2229.00 2220.00 2208.00 2194.00 2178.00 2160.00 2155.00
      2145.00 2121.00 2110.00 2100.00 2091.00 2081.00 2071.00 2063.00 2058.00 2050.00 2042.00 2041.00 2042.00 2043.00 2044.00
      2045.00 -999.00 -999.00 -999.00 -999.00 -999.00
  62  -999.00 -999.00 -999.00 -999.00 -999.00 -999.00 -999.00 -999.00 -999.00 -999.00 -999.00 -999.00 -999.00 -999.00 -999.00
      -999.00 -999.00 -999.00 -999.00 -999.00 -999.00 -999.00 -999.00 -999.00 -999.00 -999.00 -999.00 -999.00 -999.00 -999.00
      -999.00 -999.00 -999.00 2161.00 2160.00 -999.00 -999.00 -999.00 -999.00 -999.00 -999.00 -999.00 -999.00 -999.00 -999.00
      -999.00 2286.00 2262.00 2250.00 2248.00 2248.00 2248.00 2246.00 2241.00 2233.00 2221.00 2208.00 2195.00 2180.00 2175.00
      2163.00 2136.00 2124.00 2112.00 2100.00 2087.00 2077.00 2071.00 2067.00 2062.00 2054.00 2051.00 2052.00 2053.00 2053.00
      2053.00 -999.00 -999.00 -999.00 -999.00 -999.00
  63  -999.00 -999.00 -999.00 -999.00 -999.00 -999.00 -999.00 -999.00 -999.00 -999.00 -999.00 -999.00 -999.00 -999.00 -999.00
      -999.00 -999.00 -999.00 -999.00 -999.00 -999.00 -999.00 -999.00 -999.00 -999.00 -999.00 -999.00 -999.00 -999.00 -999.00
      -999.00 -999.00 -999.00 -999.00 -999.00 -999.00 -999.00 -999.00 -999.00 -999.00 -999.00 -999.00 -999.00 -999.00 -999.00
      -999.00 2295.00 2280.00 2263.00 2261.00 2260.00 2259.00 2258.00 2253.00 2250.00 2234.00 2222.00 2209.00 2196.00 2191.00
      2177.00 2149.00 2135.00 2122.00 2108.00 2094.00 2082.00 2077.00 2073.00 2070.00 2066.00 2064.00 2062.00 2062.00 2061.00
      2061.00 -999.00 -999.00 -999.00 -999.00 -999.00
  64  -999.00 -999.00 -999.00 -999.00 -999.00 -999.00 -999.00 -999.00 -999.00 -999.00 -999.00 -999.00 -999.00 -999.00 -999.00
      -999.00 -999.00 -999.00 -999.00 -999.00 -999.00 -999.00 -999.00 -999.00 -999.00 -999.00 -999.00 -999.00 -999.00 -999.00
      -999.00 -999.00 -999.00 -999.00 -999.00 -999.00 -999.00 -999.00 -999.00 -999.00 -999.00 -999.00 -999.00 -999.00 -999.00
      -999.00 -999.00 2291.00 2275.00 2271.00 2271.00 2270.00 2268.00 2265.00 2265.00 2256.00 2242.00 2228.00 2210.00 2207.00
      2192.00 2169.00 2145.00 2130.00 2116.00 2102.00 2090.00 2083.00 2080.00 2078.00 2076.00 2073.00 2071.00 2070.00 2069.00
      2075.00 -999.00 -999.00 -999.00 -999.00 -999.00
  65  -999.00 -999.00 -999.00 -999.00 -999.00 -999.00 -999.00 -999.00 -999.00 -999.00 -999.00 -999.00 -999.00 -999.00 -999.00
      -999.00 -999.00 -999.00 -999.00 -999.00 -999.00 -999.00 -999.00 -999.00 -999.00 -999.00 -999.00 -999.00 -999.00 -999.00
      -999.00 -999.00 -999.00 -999.00 -999.00 -999.00 -999.00 -999.00 -999.00 -999.00 -999.00 -999.00 -999.00 -999.00 -999.00
      -999.00 -999.00 -999.00 2290.00 2282.00 2280.00 2279.00 2277.00 2274.00 2269.00 2274.00 2262.00 2249.00 2237.00 2226.00
      2209.00 2185.00 2153.00 2137.00 2121.00 2108.00 2100.00 2092.00 2089.00 2086.00 2084.00 2081.00 2079.00 2077.00 2081.00
      2082.00 -999.00 -999.00 -999.00 -999.00 -999.00
  66  -999.00 -999.00 -999.00 -999.00 -999.00 -999.00 -999.00 -999.00 -999.00 -999.00 -999.00 -999.00 -999.00 -999.00 -999.00
      -999.00 -999.00 -999.00 -999.00 -999.00 -999.00 -999.00 -999.00 -999.00 -999.00 -999.00 -999.00 -999.00 -999.00 -999.00
      -999.00 -999.00 -999.00 -999.00 -999.00 -999.00 -999.00 -999.00 -999.00 -999.00 -999.00 -999.00 -999.00 -999.00 -999.00
      -999.00 -999.00 -999.00 -999.00 2292.00 2289.00 2287.00 2285.00 2282.00 2278.00 2288.00 2279.00 2266.00 2252.00 2237.00
      2220.00 2194.00 2165.00 2143.00 2126.00 2114.00 2107.00 2101.00 2097.00 2093.00 2090.00 2088.00 2086.00 2084.00 2088.00
      2089.00 -999.00 -999.00 -999.00 -999.00 -999.00
  67  -999.00 -999.00 -999.00 -999.00 -999.00 -999.00 -999.00 -999.00 -999.00 -999.00 -999.00 -999.00 -999.00 -999.00 -999.00
      -999.00 -999.00 -999.00 -999.00 -999.00 -999.00 -999.00 -999.00 -999.00 -999.00 -999.00 -999.00 -999.00 -999.00 -999.00
      -999.00 -999.00 -999.00 -999.00 -999.00 -999.00 -999.00 -999.00 -999.00 -999.00 -999.00 -999.00 -999.00 -999.00 -999.00
      -999.00 -999.00 -999.00 -999.00 2298.00 2296.00 2293.00 2291.00 2290.00 2287.00 2300.00 2291.00 2279.00 2262.00 2242.00
      2222.00 2197.00 2165.00 2148.00 2131.00 2119.00 2113.00 2108.00 2103.00 2099.00 2096.00 2094.00 2092.00 2091.00 2096.00
      2097.00 -999.00 -999.00 -999.00 -999.00 -999.00
  68  -999.00 -999.00 -999.00 -999.00 -999.00 -999.00 -999.00 -999.00 -999.00 -999.00 -999.00 -999.00 -999.00 -999.00 -999.00
      -999.00 -999.00 -999.00 -999.00 -999.00 -999.00 -999.00 -999.00 -999.00 -999.00 -999.00 -999.00 -999.00 -999.00 -999.00
      -999.00 -999.00 -999.00 -999.00 -999.00 -999.00 -999.00 -999.00 -999.00 -999.00 -999.00 -999.00 -999.00 -999.00 -999.00
      -999.00 -999.00 -999.00 -999.00 -999.00 2298.00 2296.00 2295.00 2294.00 2293.00 2308.00 2301.00 2286.00 2264.00 2242.00
      2222.00 2195.00 2170.00 2152.00 2136.00 2124.00 2118.00 2112.00 2108.00 2104.00 2101.00 2099.00 2097.00 2101.00 2105.00
      2106.00 -999.00 -999.00 -999.00 -999.00 -999.00
  69  -999.00 -999.00 -999.00 -999.00 -999.00 -999.00 -999.00 -999.00 -999.00 -999.00 -999.00 -999.00 -999.00 -999.00 -999.00
      -999.00 -999.00 -999.00 -999.00 -999.00 -999.00 -999.00 -999.00 -999.00 -999.00 -999.00 -999.00 -999.00 -999.00 -999.00
      -999.00 -999.00 -999.00 -999.00 -999.00 -999.00 -999.00 -999.00 -999.00 -999.00 -999.00 -999.00 -999.00 -999.00 -999.00
      -999.00 -999.00 -999.00 -999.00 -999.00 -999.00 -999.00 -999.00 -999.00 -999.00 -999.00 2306.00 2288.00 2266.00 2241.00
      2218.00 2195.00 2175.00 2154.00 2139.00 2129.00 2122.00 2116.00 2111.00 2107.00 2104.00 2102.00 2100.00 2107.00 2113.00
      2114.00 -999.00 -999.00 -999.00 -999.00 -999.00
  70  -999.00 -999.00 -999.00 -999.00 -999.00 -999.00 -999.00 -999.00 -999.00 -999.00 -999.00 -999.00 -999.00 -999.00 -999.00
      -999.00 -999.00 -999.00 -999.00 -999.00 -999.00 -999.00 -999.00 -999.00 -999.00 -999.00 -999.00 -999.00 -999.00 -999.00
      -999.00 -999.00 -999.00 -999.00 -999.00 -999.00 -999.00 -999.00 -999.00 -999.00 -999.00 -999.00 -999.00 -999.00 -999.00
      -999.00 -999.00 -999.00 -999.00 -999.00 -999.00 -999.00 -999.00 -999.00 -999.00 -999.00 2312.00 2293.00 2270.00 2245.00
      2224.00 2203.00 2181.00 2155.00 2142.00 2132.00 2124.00 2118.00 2113.00 2109.00 2106.00 2103.00 2102.00 2110.00 2116.00
      -999.00 -999.00 -999.00 -999.00 -999.00 -999.00
  71  -999.00 -999.00 -999.00 -999.00 -999.00 -999.00 -999.00 -999.00 -999.00 -999.00 -999.00 -999.00 -999.00 -999.00 -999.00
      -999.00 -999.00 -999.00 -999.00 -999.00 -999.00 -999.00 -999.00 -999.00 -999.00 -999.00 -999.00 -999.00 -999.00 -999.00
      -999.00 -999.00 -999.00 -999.00 -999.00 -999.00 -999.00 -999.00 -999.00 -999.00 -999.00 -999.00 -999.00 -999.00 -999.00
      -999.00 -999.00 -999.00 -999.00 -999.00 -999.00 -999.00 -999.00 -999.00 -999.00 -999.00 -999.00 2303.00 2279.00 2252.00
      2231.00 2215.00 2199.00 2181.00 -999.00 -999.00 -999.00 -999.00 -999.00 -999.00 -999.00 -999.00 -999.00 -999.00 2120.00
      -999.00 -999.00 -999.00 -999.00 -999.00 -999.00
  72  -999.00 -999.00 -999.00 -999.00 -999.00 -999.00 -999.00 -999.00 -999.00 -999.00 -999.00 -999.00 -999.00 -999.00 -999.00
      -999.00 -999.00 -999.00 -999.00 -999.00 -999.00 -999.00 -999.00 -999.00 -999.00 -999.00 -999.00 -999.00 -999.00 -999.00
      -999.00 -999.00 -999.00 -999.00 -999.00 -999.00 -999.00 -999.00 -999.00 -999.00 -999.00 -999.00 -999.00 -999.00 -999.00
      -999.00 -999.00 -999.00 -999.00 -999.00 -999.00 -999.00 -999.00 -999.00 -999.00 -999.00 -999.00 -999.00 2288.00 2260.00
      2237.00 2227.00 -999.00 -999.00 -999.00 -999.00 -999.00 -999.00 -999.00 -999.00 -999.00 -999.00 -999.00 -999.00 -999.00
      -999.00 -999.00 -999.00 -999.00 -999.00 -999.00
  73  -999.00 -999.00 -999.00 -999.00 -999.00 -999.00 -999.00 -999.00 -999.00 -999.00 -999.00 -999.00 -999.00 -999.00 -999.00
      -999.00 -999.00 -999.00 -999.00 -999.00 -999.00 -999.00 -999.00 -999.00 -999.00 -999.00 -999.00 -999.00 -999.00 -999.00
      -999.00 -999.00 -999.00 -999.00 -999.00 -999.00 -999.00 -999.00 -999.00 -999.00 -999.00 -999.00 -999.00 -999.00 -999.00
      -999.00 -999.00 -999.00 -999.00 -999.00 -999.00 -999.00 -999.00 -999.00 -999.00 -999.00 -999.00 -999.00 2294.00 2270.00
      2245.00 -999.00 -999.00 -999.00 -999.00 -999.00 -999.00 -999.00 -999.00 -999.00 -999.00 -999.00 -999.00 -999.00 -999.00
      -999.00 -999.00 -999.00 -999.00 -999.00 -999.00

 HEAD WILL BE SAVED ON UNIT   58 AT END OF TIME STEP 5844, STRESS PERIOD    2
1
  VOLUMETRIC BUDGET FOR ENTIRE MODEL AT END OF TIME STEP 5844, STRESS PERIOD   2
  ------------------------------------------------------------------------------

     CUMULATIVE VOLUMES      L**3       RATES FOR THIS TIME STEP      L**3/T
     ------------------                 ------------------------

           IN:                                      IN:
           ---                                      ---
             STORAGE =           0.0000               STORAGE =           0.0000
       CONSTANT HEAD =           0.0000         CONSTANT HEAD =           0.0000
               WELLS =      445240.0000                 WELLS =          76.0000
      STREAM LEAKAGE =   111040784.0000        STREAM LEAKAGE =       18996.3223
        UZF RECHARGE =    81066128.0000          UZF RECHARGE =       13869.0908
               GW ET =           0.0000                 GW ET =           0.0000
     SURFACE LEAKAGE =           0.0000       SURFACE LEAKAGE =           0.0000

            TOTAL IN =   192552160.0000              TOTAL IN =       32941.4141

          OUT:                                     OUT:
          ----                                     ----
             STORAGE =           0.0000               STORAGE =           0.0000
       CONSTANT HEAD =     5860654.0000         CONSTANT HEAD =        1002.7369
               WELLS =           0.0000                 WELLS =           0.0000
      STREAM LEAKAGE =  1115482752.0000        STREAM LEAKAGE =      190843.3438
        UZF RECHARGE =           0.0000          UZF RECHARGE =           0.0000
               GW ET =           0.0000                 GW ET =           0.0000
     SURFACE LEAKAGE =           0.0000       SURFACE LEAKAGE =           0.0000

           TOTAL OUT =  1121343360.0000             TOTAL OUT =      191846.0781

            IN - OUT =  -928791168.0000              IN - OUT =     -158904.6562

 PERCENT DISCREPANCY =        -141.38     PERCENT DISCREPANCY =        -141.38






         TIME SUMMARY AT END OF TIME STEP 5844 IN STRESS PERIOD    2
                    SECONDS     MINUTES      HOURS       DAYS        YEARS
                    -----------------------------------------------------------
   TIME STEP LENGTH  86400.      1440.0      24.000      1.0000     2.73785E-03
 STRESS PERIOD TIME 5.04922E+08 8.41536E+06 1.40256E+05  5844.0      16.000    
         TOTAL TIME 5.05008E+08 8.41680E+06 1.40280E+05  5845.0      16.003    
1

 Run end date and time (yyyy/mm/dd hh:mm:ss): 2019/02/07 11:07:04
 Elapsed run time:  8.902 Seconds

